
---------- Begin Simulation Statistics ----------
sim_seconds                                  0.011786                       # Number of seconds simulated
sim_ticks                                 11785902000                       # Number of ticks simulated
final_tick                                11785902000                       # Number of ticks from beginning of simulation (restored from checkpoints and never reset)
sim_freq                                 1000000000000                       # Frequency of simulated ticks
host_inst_rate                                 530870                       # Simulator instruction rate (inst/s)
host_op_rate                                   757745                       # Simulator op (including micro ops) rate (op/s)
host_tick_rate                              291832421                       # Simulator tick rate (ticks/s)
host_mem_usage                               10372296                       # Number of bytes of host memory used
host_seconds                                    40.39                       # Real time elapsed on the host
sim_insts                                    21439637                       # Number of instructions simulated
sim_ops                                      30602194                       # Number of ops (including micro ops) simulated
system.clk_domain.voltage_domain.voltage            1                       # Voltage in Volts
system.clk_domain.clock                           500                       # Clock period in ticks
system.mem_ctrl.pwrStateResidencyTicks::UNDEFINED  11785902000                       # Cumulative time (in ticks) in various power states
system.mem_ctrl.bytes_read::.cpu.inst           39168                       # Number of bytes read from this memory
system.mem_ctrl.bytes_read::.cpu.data          147776                       # Number of bytes read from this memory
system.mem_ctrl.bytes_read::total              186944                       # Number of bytes read from this memory
system.mem_ctrl.bytes_inst_read::.cpu.inst        39168                       # Number of instructions bytes read from this memory
system.mem_ctrl.bytes_inst_read::total          39168                       # Number of instructions bytes read from this memory
system.mem_ctrl.num_reads::.cpu.inst              612                       # Number of read requests responded to by this memory
system.mem_ctrl.num_reads::.cpu.data             2309                       # Number of read requests responded to by this memory
system.mem_ctrl.num_reads::total                 2921                       # Number of read requests responded to by this memory
system.mem_ctrl.bw_read::.cpu.inst            3323293                       # Total read bandwidth from this memory (bytes/s)
system.mem_ctrl.bw_read::.cpu.data           12538370                       # Total read bandwidth from this memory (bytes/s)
system.mem_ctrl.bw_read::total               15861663                       # Total read bandwidth from this memory (bytes/s)
system.mem_ctrl.bw_inst_read::.cpu.inst       3323293                       # Instruction read bandwidth from this memory (bytes/s)
system.mem_ctrl.bw_inst_read::total           3323293                       # Instruction read bandwidth from this memory (bytes/s)
system.mem_ctrl.bw_total::.cpu.inst           3323293                       # Total bandwidth to/from this memory (bytes/s)
system.mem_ctrl.bw_total::.cpu.data          12538370                       # Total bandwidth to/from this memory (bytes/s)
system.mem_ctrl.bw_total::total              15861663                       # Total bandwidth to/from this memory (bytes/s)
system.mem_ctrl.avgPriority_.cpu.inst::samples       612.00                       # Average QoS priority value for accepted requests
system.mem_ctrl.avgPriority_.cpu.data::samples      2309.00                       # Average QoS priority value for accepted requests
system.mem_ctrl.priorityMinLatency       0.000000018750                       # per QoS priority minimum request to response latency (s)
system.mem_ctrl.priorityMaxLatency       0.000001105250                       # per QoS priority maximum request to response latency (s)
system.mem_ctrl.numReadWriteTurnArounds             0                       # Number of turnarounds from READ to WRITE
system.mem_ctrl.numWriteReadTurnArounds             0                       # Number of turnarounds from WRITE to READ
system.mem_ctrl.numStayReadState                 5956                       # Number of times bus staying in READ state
system.mem_ctrl.numStayWriteState                   0                       # Number of times bus staying in WRITE state
system.mem_ctrl.readReqs                         2921                       # Number of read requests accepted
system.mem_ctrl.writeReqs                           0                       # Number of write requests accepted
system.mem_ctrl.readBursts                       2921                       # Number of DRAM read bursts, including those serviced by the write queue
system.mem_ctrl.writeBursts                         0                       # Number of DRAM write bursts, including those merged in the write queue
system.mem_ctrl.bytesReadDRAM                  186944                       # Total number of bytes read from DRAM
system.mem_ctrl.bytesReadWrQ                        0                       # Total number of bytes read from write queue
system.mem_ctrl.bytesWritten                        0                       # Total number of bytes written to DRAM
system.mem_ctrl.bytesReadSys                   186944                       # Total read bytes from the system interface side
system.mem_ctrl.bytesWrittenSys                     0                       # Total written bytes from the system interface side
system.mem_ctrl.servicedByWrQ                       0                       # Number of DRAM read bursts serviced by the write queue
system.mem_ctrl.mergedWrBursts                      0                       # Number of DRAM write bursts merged with an existing one
system.mem_ctrl.neitherReadNorWriteReqs             0                       # Number of requests that are neither read nor write
system.mem_ctrl.perBankRdBursts::0                322                       # Per bank write bursts
system.mem_ctrl.perBankRdBursts::1                280                       # Per bank write bursts
system.mem_ctrl.perBankRdBursts::2                143                       # Per bank write bursts
system.mem_ctrl.perBankRdBursts::3                140                       # Per bank write bursts
system.mem_ctrl.perBankRdBursts::4                132                       # Per bank write bursts
system.mem_ctrl.perBankRdBursts::5                135                       # Per bank write bursts
system.mem_ctrl.perBankRdBursts::6                179                       # Per bank write bursts
system.mem_ctrl.perBankRdBursts::7                153                       # Per bank write bursts
system.mem_ctrl.perBankRdBursts::8                171                       # Per bank write bursts
system.mem_ctrl.perBankRdBursts::9                128                       # Per bank write bursts
system.mem_ctrl.perBankRdBursts::10               171                       # Per bank write bursts
system.mem_ctrl.perBankRdBursts::11               172                       # Per bank write bursts
system.mem_ctrl.perBankRdBursts::12               152                       # Per bank write bursts
system.mem_ctrl.perBankRdBursts::13               183                       # Per bank write bursts
system.mem_ctrl.perBankRdBursts::14               240                       # Per bank write bursts
system.mem_ctrl.perBankRdBursts::15               220                       # Per bank write bursts
system.mem_ctrl.perBankWrBursts::0                  0                       # Per bank write bursts
system.mem_ctrl.perBankWrBursts::1                  0                       # Per bank write bursts
system.mem_ctrl.perBankWrBursts::2                  0                       # Per bank write bursts
system.mem_ctrl.perBankWrBursts::3                  0                       # Per bank write bursts
system.mem_ctrl.perBankWrBursts::4                  0                       # Per bank write bursts
system.mem_ctrl.perBankWrBursts::5                  0                       # Per bank write bursts
system.mem_ctrl.perBankWrBursts::6                  0                       # Per bank write bursts
system.mem_ctrl.perBankWrBursts::7                  0                       # Per bank write bursts
system.mem_ctrl.perBankWrBursts::8                  0                       # Per bank write bursts
system.mem_ctrl.perBankWrBursts::9                  0                       # Per bank write bursts
system.mem_ctrl.perBankWrBursts::10                 0                       # Per bank write bursts
system.mem_ctrl.perBankWrBursts::11                 0                       # Per bank write bursts
system.mem_ctrl.perBankWrBursts::12                 0                       # Per bank write bursts
system.mem_ctrl.perBankWrBursts::13                 0                       # Per bank write bursts
system.mem_ctrl.perBankWrBursts::14                 0                       # Per bank write bursts
system.mem_ctrl.perBankWrBursts::15                 0                       # Per bank write bursts
system.mem_ctrl.numRdRetry                          0                       # Number of times read queue was full causing retry
system.mem_ctrl.numWrRetry                          0                       # Number of times write queue was full causing retry
system.mem_ctrl.totGap                    11785810000                       # Total gap between requests
system.mem_ctrl.readPktSize::0                      0                       # Read request sizes (log2)
system.mem_ctrl.readPktSize::1                      0                       # Read request sizes (log2)
system.mem_ctrl.readPktSize::2                      0                       # Read request sizes (log2)
system.mem_ctrl.readPktSize::3                      0                       # Read request sizes (log2)
system.mem_ctrl.readPktSize::4                      0                       # Read request sizes (log2)
system.mem_ctrl.readPktSize::5                      0                       # Read request sizes (log2)
system.mem_ctrl.readPktSize::6                   2921                       # Read request sizes (log2)
system.mem_ctrl.writePktSize::0                     0                       # Write request sizes (log2)
system.mem_ctrl.writePktSize::1                     0                       # Write request sizes (log2)
system.mem_ctrl.writePktSize::2                     0                       # Write request sizes (log2)
system.mem_ctrl.writePktSize::3                     0                       # Write request sizes (log2)
system.mem_ctrl.writePktSize::4                     0                       # Write request sizes (log2)
system.mem_ctrl.writePktSize::5                     0                       # Write request sizes (log2)
system.mem_ctrl.writePktSize::6                     0                       # Write request sizes (log2)
system.mem_ctrl.rdQLenPdf::0                     2610                       # What read queue length does an incoming req see
system.mem_ctrl.rdQLenPdf::1                      236                       # What read queue length does an incoming req see
system.mem_ctrl.rdQLenPdf::2                       60                       # What read queue length does an incoming req see
system.mem_ctrl.rdQLenPdf::3                        9                       # What read queue length does an incoming req see
system.mem_ctrl.rdQLenPdf::4                        6                       # What read queue length does an incoming req see
system.mem_ctrl.rdQLenPdf::5                        0                       # What read queue length does an incoming req see
system.mem_ctrl.rdQLenPdf::6                        0                       # What read queue length does an incoming req see
system.mem_ctrl.rdQLenPdf::7                        0                       # What read queue length does an incoming req see
system.mem_ctrl.rdQLenPdf::8                        0                       # What read queue length does an incoming req see
system.mem_ctrl.rdQLenPdf::9                        0                       # What read queue length does an incoming req see
system.mem_ctrl.rdQLenPdf::10                       0                       # What read queue length does an incoming req see
system.mem_ctrl.rdQLenPdf::11                       0                       # What read queue length does an incoming req see
system.mem_ctrl.rdQLenPdf::12                       0                       # What read queue length does an incoming req see
system.mem_ctrl.rdQLenPdf::13                       0                       # What read queue length does an incoming req see
system.mem_ctrl.rdQLenPdf::14                       0                       # What read queue length does an incoming req see
system.mem_ctrl.rdQLenPdf::15                       0                       # What read queue length does an incoming req see
system.mem_ctrl.rdQLenPdf::16                       0                       # What read queue length does an incoming req see
system.mem_ctrl.rdQLenPdf::17                       0                       # What read queue length does an incoming req see
system.mem_ctrl.rdQLenPdf::18                       0                       # What read queue length does an incoming req see
system.mem_ctrl.rdQLenPdf::19                       0                       # What read queue length does an incoming req see
system.mem_ctrl.rdQLenPdf::20                       0                       # What read queue length does an incoming req see
system.mem_ctrl.rdQLenPdf::21                       0                       # What read queue length does an incoming req see
system.mem_ctrl.rdQLenPdf::22                       0                       # What read queue length does an incoming req see
system.mem_ctrl.rdQLenPdf::23                       0                       # What read queue length does an incoming req see
system.mem_ctrl.rdQLenPdf::24                       0                       # What read queue length does an incoming req see
system.mem_ctrl.rdQLenPdf::25                       0                       # What read queue length does an incoming req see
system.mem_ctrl.rdQLenPdf::26                       0                       # What read queue length does an incoming req see
system.mem_ctrl.rdQLenPdf::27                       0                       # What read queue length does an incoming req see
system.mem_ctrl.rdQLenPdf::28                       0                       # What read queue length does an incoming req see
system.mem_ctrl.rdQLenPdf::29                       0                       # What read queue length does an incoming req see
system.mem_ctrl.rdQLenPdf::30                       0                       # What read queue length does an incoming req see
system.mem_ctrl.rdQLenPdf::31                       0                       # What read queue length does an incoming req see
system.mem_ctrl.wrQLenPdf::0                        0                       # What write queue length does an incoming req see
system.mem_ctrl.wrQLenPdf::1                        0                       # What write queue length does an incoming req see
system.mem_ctrl.wrQLenPdf::2                        0                       # What write queue length does an incoming req see
system.mem_ctrl.wrQLenPdf::3                        0                       # What write queue length does an incoming req see
system.mem_ctrl.wrQLenPdf::4                        0                       # What write queue length does an incoming req see
system.mem_ctrl.wrQLenPdf::5                        0                       # What write queue length does an incoming req see
system.mem_ctrl.wrQLenPdf::6                        0                       # What write queue length does an incoming req see
system.mem_ctrl.wrQLenPdf::7                        0                       # What write queue length does an incoming req see
system.mem_ctrl.wrQLenPdf::8                        0                       # What write queue length does an incoming req see
system.mem_ctrl.wrQLenPdf::9                        0                       # What write queue length does an incoming req see
system.mem_ctrl.wrQLenPdf::10                       0                       # What write queue length does an incoming req see
system.mem_ctrl.wrQLenPdf::11                       0                       # What write queue length does an incoming req see
system.mem_ctrl.wrQLenPdf::12                       0                       # What write queue length does an incoming req see
system.mem_ctrl.wrQLenPdf::13                       0                       # What write queue length does an incoming req see
system.mem_ctrl.wrQLenPdf::14                       0                       # What write queue length does an incoming req see
system.mem_ctrl.wrQLenPdf::15                       0                       # What write queue length does an incoming req see
system.mem_ctrl.wrQLenPdf::16                       0                       # What write queue length does an incoming req see
system.mem_ctrl.wrQLenPdf::17                       0                       # What write queue length does an incoming req see
system.mem_ctrl.wrQLenPdf::18                       0                       # What write queue length does an incoming req see
system.mem_ctrl.wrQLenPdf::19                       0                       # What write queue length does an incoming req see
system.mem_ctrl.wrQLenPdf::20                       0                       # What write queue length does an incoming req see
system.mem_ctrl.wrQLenPdf::21                       0                       # What write queue length does an incoming req see
system.mem_ctrl.wrQLenPdf::22                       0                       # What write queue length does an incoming req see
system.mem_ctrl.wrQLenPdf::23                       0                       # What write queue length does an incoming req see
system.mem_ctrl.wrQLenPdf::24                       0                       # What write queue length does an incoming req see
system.mem_ctrl.wrQLenPdf::25                       0                       # What write queue length does an incoming req see
system.mem_ctrl.wrQLenPdf::26                       0                       # What write queue length does an incoming req see
system.mem_ctrl.wrQLenPdf::27                       0                       # What write queue length does an incoming req see
system.mem_ctrl.wrQLenPdf::28                       0                       # What write queue length does an incoming req see
system.mem_ctrl.wrQLenPdf::29                       0                       # What write queue length does an incoming req see
system.mem_ctrl.wrQLenPdf::30                       0                       # What write queue length does an incoming req see
system.mem_ctrl.wrQLenPdf::31                       0                       # What write queue length does an incoming req see
system.mem_ctrl.wrQLenPdf::32                       0                       # What write queue length does an incoming req see
system.mem_ctrl.wrQLenPdf::33                       0                       # What write queue length does an incoming req see
system.mem_ctrl.wrQLenPdf::34                       0                       # What write queue length does an incoming req see
system.mem_ctrl.wrQLenPdf::35                       0                       # What write queue length does an incoming req see
system.mem_ctrl.wrQLenPdf::36                       0                       # What write queue length does an incoming req see
system.mem_ctrl.wrQLenPdf::37                       0                       # What write queue length does an incoming req see
system.mem_ctrl.wrQLenPdf::38                       0                       # What write queue length does an incoming req see
system.mem_ctrl.wrQLenPdf::39                       0                       # What write queue length does an incoming req see
system.mem_ctrl.wrQLenPdf::40                       0                       # What write queue length does an incoming req see
system.mem_ctrl.wrQLenPdf::41                       0                       # What write queue length does an incoming req see
system.mem_ctrl.wrQLenPdf::42                       0                       # What write queue length does an incoming req see
system.mem_ctrl.wrQLenPdf::43                       0                       # What write queue length does an incoming req see
system.mem_ctrl.wrQLenPdf::44                       0                       # What write queue length does an incoming req see
system.mem_ctrl.wrQLenPdf::45                       0                       # What write queue length does an incoming req see
system.mem_ctrl.wrQLenPdf::46                       0                       # What write queue length does an incoming req see
system.mem_ctrl.wrQLenPdf::47                       0                       # What write queue length does an incoming req see
system.mem_ctrl.wrQLenPdf::48                       0                       # What write queue length does an incoming req see
system.mem_ctrl.wrQLenPdf::49                       0                       # What write queue length does an incoming req see
system.mem_ctrl.wrQLenPdf::50                       0                       # What write queue length does an incoming req see
system.mem_ctrl.wrQLenPdf::51                       0                       # What write queue length does an incoming req see
system.mem_ctrl.wrQLenPdf::52                       0                       # What write queue length does an incoming req see
system.mem_ctrl.wrQLenPdf::53                       0                       # What write queue length does an incoming req see
system.mem_ctrl.wrQLenPdf::54                       0                       # What write queue length does an incoming req see
system.mem_ctrl.wrQLenPdf::55                       0                       # What write queue length does an incoming req see
system.mem_ctrl.wrQLenPdf::56                       0                       # What write queue length does an incoming req see
system.mem_ctrl.wrQLenPdf::57                       0                       # What write queue length does an incoming req see
system.mem_ctrl.wrQLenPdf::58                       0                       # What write queue length does an incoming req see
system.mem_ctrl.wrQLenPdf::59                       0                       # What write queue length does an incoming req see
system.mem_ctrl.wrQLenPdf::60                       0                       # What write queue length does an incoming req see
system.mem_ctrl.wrQLenPdf::61                       0                       # What write queue length does an incoming req see
system.mem_ctrl.wrQLenPdf::62                       0                       # What write queue length does an incoming req see
system.mem_ctrl.wrQLenPdf::63                       0                       # What write queue length does an incoming req see
system.mem_ctrl.bytesPerActivate::samples          419                       # Bytes accessed per row activation
system.mem_ctrl.bytesPerActivate::mean     439.293556                       # Bytes accessed per row activation
system.mem_ctrl.bytesPerActivate::gmean    269.311053                       # Bytes accessed per row activation
system.mem_ctrl.bytesPerActivate::stdev    392.645837                       # Bytes accessed per row activation
system.mem_ctrl.bytesPerActivate::0-127            81     19.33%     19.33% # Bytes accessed per row activation
system.mem_ctrl.bytesPerActivate::128-255          142     33.89%     53.22% # Bytes accessed per row activation
system.mem_ctrl.bytesPerActivate::256-383           26      6.21%     59.43% # Bytes accessed per row activation
system.mem_ctrl.bytesPerActivate::384-511           19      4.53%     63.96% # Bytes accessed per row activation
system.mem_ctrl.bytesPerActivate::512-639           16      3.82%     67.78% # Bytes accessed per row activation
system.mem_ctrl.bytesPerActivate::640-767            8      1.91%     69.69% # Bytes accessed per row activation
system.mem_ctrl.bytesPerActivate::768-895            8      1.91%     71.60% # Bytes accessed per row activation
system.mem_ctrl.bytesPerActivate::896-1023           12      2.86%     74.46% # Bytes accessed per row activation
system.mem_ctrl.bytesPerActivate::1024-1151          107     25.54%    100.00% # Bytes accessed per row activation
system.mem_ctrl.bytesPerActivate::total           419                       # Bytes accessed per row activation
system.mem_ctrl.masterReadBytes::.cpu.inst        39168                       # Per-master bytes read from memory
system.mem_ctrl.masterReadBytes::.cpu.data       147776                       # Per-master bytes read from memory
system.mem_ctrl.masterReadRate::.cpu.inst 3323292.523559079506                       # Per-master bytes read from memory rate (Bytes/sec)
system.mem_ctrl.masterReadRate::.cpu.data 12538369.994931234047                       # Per-master bytes read from memory rate (Bytes/sec)
system.mem_ctrl.masterReadAccesses::.cpu.inst          612                       # Per-master read serviced memory accesses
system.mem_ctrl.masterReadAccesses::.cpu.data         2309                       # Per-master read serviced memory accesses
system.mem_ctrl.masterReadTotalLat::.cpu.inst     23017500                       # Per-master read total memory access latency
system.mem_ctrl.masterReadTotalLat::.cpu.data     79542000                       # Per-master read total memory access latency
system.mem_ctrl.masterReadAvgLat::.cpu.inst     37610.29                       # Per-master read average memory access latency
system.mem_ctrl.masterReadAvgLat::.cpu.data     34448.68                       # Per-master read average memory access latency
system.mem_ctrl.totQLat                      47790750                       # Total ticks spent queuing
system.mem_ctrl.totMemAccLat                102559500                       # Total ticks spent from burst creation until serviced by the DRAM
system.mem_ctrl.totBusLat                    14605000                       # Total ticks spent in databus transfers
system.mem_ctrl.avgQLat                      16361.09                       # Average queueing delay per DRAM burst
system.mem_ctrl.avgBusLat                     5000.00                       # Average bus latency per DRAM burst
system.mem_ctrl.avgMemAccLat                 35111.09                       # Average memory access latency per DRAM burst
system.mem_ctrl.avgRdBW                         15.86                       # Average DRAM read bandwidth in MiByte/s
system.mem_ctrl.avgWrBW                          0.00                       # Average achieved write bandwidth in MiByte/s
system.mem_ctrl.avgRdBWSys                      15.86                       # Average system read bandwidth in MiByte/s
system.mem_ctrl.avgWrBWSys                       0.00                       # Average system write bandwidth in MiByte/s
system.mem_ctrl.peakBW                       12800.00                       # Theoretical peak bandwidth in MiByte/s
system.mem_ctrl.busUtil                          0.12                       # Data bus utilization in percentage
system.mem_ctrl.busUtilRead                      0.12                       # Data bus utilization in percentage for reads
system.mem_ctrl.busUtilWrite                     0.00                       # Data bus utilization in percentage for writes
system.mem_ctrl.avgRdQLen                        1.00                       # Average read queue length when enqueuing
system.mem_ctrl.avgWrQLen                        0.00                       # Average write queue length when enqueuing
system.mem_ctrl.readRowHits                      2491                       # Number of row buffer hits during reads
system.mem_ctrl.writeRowHits                        0                       # Number of row buffer hits during writes
system.mem_ctrl.readRowHitRate                  85.28                       # Row buffer hit rate for reads
system.mem_ctrl.writeRowHitRate                   nan                       # Row buffer hit rate for writes
system.mem_ctrl.avgGap                     4034854.50                       # Average gap between requests
system.mem_ctrl.pageHitRate                     85.28                       # Row buffer hit rate, read and write combined
system.mem_ctrl_0.actEnergy                   1577940                       # Energy for activate commands per rank (pJ)
system.mem_ctrl_0.preEnergy                    823515                       # Energy for precharge commands per rank (pJ)
system.mem_ctrl_0.readEnergy                 10595760                       # Energy for read commands per rank (pJ)
system.mem_ctrl_0.writeEnergy                       0                       # Energy for write commands per rank (pJ)
system.mem_ctrl_0.refreshEnergy          49785840.000000                       # Energy for refresh commands per rank (pJ)
system.mem_ctrl_0.actBackEnergy              26764350                       # Energy for active background per rank (pJ)
system.mem_ctrl_0.preBackEnergy               2434080                       # Energy for precharge background per rank (pJ)
system.mem_ctrl_0.actPowerDownEnergy        221638230                       # Energy for active power-down per rank (pJ)
system.mem_ctrl_0.prePowerDownEnergy         34270560                       # Energy for precharge power-down per rank (pJ)
system.mem_ctrl_0.selfRefreshEnergy        2680460400                       # Energy for self refresh per rank (pJ)
system.mem_ctrl_0.totalEnergy              3028350675                       # Total energy per rank (pJ)
system.mem_ctrl_0.averagePower             256.946874                       # Core power per rank (mW)
system.mem_ctrl_0.totalIdleTime           11720822000                       # Total Idle time Per DRAM Rank
system.mem_ctrl_0.memoryStateTime::IDLE       3444500                       # Time in different power states
system.mem_ctrl_0.memoryStateTime::REF       21060000                       # Time in different power states
system.mem_ctrl_0.memoryStateTime::SREF   11145575000                       # Time in different power states
system.mem_ctrl_0.memoryStateTime::PRE_PDN     89229500                       # Time in different power states
system.mem_ctrl_0.memoryStateTime::ACT       40526750                       # Time in different power states
system.mem_ctrl_0.memoryStateTime::ACT_PDN    486066250                       # Time in different power states
system.mem_ctrl_1.actEnergy                   1492260                       # Energy for activate commands per rank (pJ)
system.mem_ctrl_1.preEnergy                    766590                       # Energy for precharge commands per rank (pJ)
system.mem_ctrl_1.readEnergy                 10260180                       # Energy for read commands per rank (pJ)
system.mem_ctrl_1.writeEnergy                       0                       # Energy for write commands per rank (pJ)
system.mem_ctrl_1.refreshEnergy          41795520.000000                       # Energy for refresh commands per rank (pJ)
system.mem_ctrl_1.actBackEnergy              24175410                       # Energy for active background per rank (pJ)
system.mem_ctrl_1.preBackEnergy               1798560                       # Energy for precharge background per rank (pJ)
system.mem_ctrl_1.actPowerDownEnergy        194645310                       # Energy for active power-down per rank (pJ)
system.mem_ctrl_1.prePowerDownEnergy         20642880                       # Energy for precharge power-down per rank (pJ)
system.mem_ctrl_1.selfRefreshEnergy        2701630860                       # Energy for self refresh per rank (pJ)
system.mem_ctrl_1.totalEnergy              2997207570                       # Total energy per rank (pJ)
system.mem_ctrl_1.averagePower             254.304471                       # Core power per rank (mW)
system.mem_ctrl_1.totalIdleTime           11728008250                       # Total Idle time Per DRAM Rank
system.mem_ctrl_1.memoryStateTime::IDLE       2165500                       # Time in different power states
system.mem_ctrl_1.memoryStateTime::REF       17680000                       # Time in different power states
system.mem_ctrl_1.memoryStateTime::SREF   11247589250                       # Time in different power states
system.mem_ctrl_1.memoryStateTime::PRE_PDN     53753250                       # Time in different power states
system.mem_ctrl_1.memoryStateTime::ACT       37886000                       # Time in different power states
system.mem_ctrl_1.memoryStateTime::ACT_PDN    426828000                       # Time in different power states
system.pwrStateResidencyTicks::UNDEFINED  11785902000                       # Cumulative time (in ticks) in various power states
system.cpu.branchPred.lookups                  695431                       # Number of BP lookups
system.cpu.branchPred.condPredicted            695431                       # Number of conditional branches predicted
system.cpu.branchPred.condIncorrect             18577                       # Number of conditional branches incorrect
system.cpu.branchPred.BTBLookups               642278                       # Number of BTB lookups
system.cpu.branchPred.BTBHits                       0                       # Number of BTB hits
system.cpu.branchPred.BTBCorrect                    0                       # Number of correct BTB predictions (this stat may not work properly.
system.cpu.branchPred.BTBHitPct              0.000000                       # BTB Hit Percentage
system.cpu.branchPred.usedRAS                   47098                       # Number of times the RAS was used to get a target.
system.cpu.branchPred.RASInCorrect                168                       # Number of incorrect RAS predictions.
system.cpu.branchPred.indirectLookups          642278                       # Number of indirect predictor lookups.
system.cpu.branchPred.indirectHits             565392                       # Number of indirect target hits.
system.cpu.branchPred.indirectMisses            76886                       # Number of indirect misses.
system.cpu.branchPredindirectMispredicted          864                       # Number of mispredicted indirect branches.
system.cpu.dtb.walker.pwrStateResidencyTicks::UNDEFINED  11785902000                       # Cumulative time (in ticks) in various power states
system.cpu.dtb.rdAccesses                     8747606                       # TLB accesses on read requests
system.cpu.dtb.wrAccesses                     2001732                       # TLB accesses on write requests
system.cpu.dtb.rdMisses                            86                       # TLB misses on read requests
system.cpu.dtb.wrMisses                            57                       # TLB misses on write requests
system.cpu.apic_clk_domain.clock                 8000                       # Clock period in ticks
system.cpu.interrupts.pwrStateResidencyTicks::UNDEFINED  11785902000                       # Cumulative time (in ticks) in various power states
system.cpu.itb.walker.pwrStateResidencyTicks::UNDEFINED  11785902000                       # Cumulative time (in ticks) in various power states
system.cpu.itb.rdAccesses                           0                       # TLB accesses on read requests
system.cpu.itb.wrAccesses                     1785527                       # TLB accesses on write requests
system.cpu.itb.rdMisses                             0                       # TLB misses on read requests
system.cpu.itb.wrMisses                           136                       # TLB misses on write requests
system.cpu.workload.numSyscalls                    11                       # Number of system calls
system.cpu.pwrStateResidencyTicks::ON     11785902000                       # Cumulative time (in ticks) in various power states
system.cpu.numCycles                         23571805                       # number of cpu cycles simulated
system.cpu.numWorkItemsStarted                      0                       # number of work items this cpu started
system.cpu.numWorkItemsCompleted                    0                       # number of work items this cpu completed
system.cpu.fetch.icacheStallCycles              47623                       # Number of cycles fetch is stalled on an Icache miss
system.cpu.fetch.Insts                       22332095                       # Number of instructions fetch has processed
system.cpu.fetch.Branches                      695431                       # Number of branches that fetch encountered
system.cpu.fetch.predictedBranches             612490                       # Number of branches that fetch has predicted taken
system.cpu.fetch.Cycles                      23469244                       # Number of cycles fetch has run and was not squashing or blocked
system.cpu.fetch.SquashCycles                   37640                       # Number of cycles fetch has spent squashing
system.cpu.fetch.MiscStallCycles                   60                       # Number of cycles fetch has spent waiting on interrupts, or bad addresses, or out of MSHRs
system.cpu.fetch.PendingTrapStallCycles           711                       # Number of stall cycles due to pending traps
system.cpu.fetch.PendingQuiesceStallCycles           20                       # Number of stall cycles due to pending quiesce instructions
system.cpu.fetch.CacheLines                   1785443                       # Number of cache lines fetched
system.cpu.fetch.IcacheSquashes                   505                       # Number of outstanding Icache misses that were squashed
system.cpu.fetch.rateDist::samples           23536478                       # Number of instructions fetched each cycle (Total)
system.cpu.fetch.rateDist::mean              1.356410                       # Number of instructions fetched each cycle (Total)
system.cpu.fetch.rateDist::stdev             0.902739                       # Number of instructions fetched each cycle (Total)
system.cpu.fetch.rateDist::underflows               0      0.00%      0.00% # Number of instructions fetched each cycle (Total)
system.cpu.fetch.rateDist::0                  6890953     29.28%     29.28% # Number of instructions fetched each cycle (Total)
system.cpu.fetch.rateDist::1                  1365940      5.80%     35.08% # Number of instructions fetched each cycle (Total)
system.cpu.fetch.rateDist::2                 15279585     64.92%    100.00% # Number of instructions fetched each cycle (Total)
system.cpu.fetch.rateDist::overflows                0      0.00%    100.00% # Number of instructions fetched each cycle (Total)
system.cpu.fetch.rateDist::min_value                0                       # Number of instructions fetched each cycle (Total)
system.cpu.fetch.rateDist::max_value                2                       # Number of instructions fetched each cycle (Total)
system.cpu.fetch.rateDist::total             23536478                       # Number of instructions fetched each cycle (Total)
system.cpu.fetch.branchRate                  0.029503                       # Number of branch fetches per cycle
system.cpu.fetch.rate                        0.947407                       # Number of inst fetches per cycle
system.cpu.decode.IdleCycles                  1821716                       # Number of cycles decode is idle
system.cpu.decode.BlockedCycles               5947177                       # Number of cycles decode is blocked
system.cpu.decode.RunCycles                  13160431                       # Number of cycles decode is running
system.cpu.decode.UnblockCycles               2588334                       # Number of cycles decode is unblocking
system.cpu.decode.SquashCycles                  18820                       # Number of cycles decode is squashing
system.cpu.decode.DecodedInsts               31325888                       # Number of instructions handled by decode
system.cpu.decode.SquashedInsts                 72549                       # Number of squashed instructions handled by decode
system.cpu.rename.SquashCycles                  18820                       # Number of cycles rename is squashing
system.cpu.rename.IdleCycles                  3144386                       # Number of cycles rename is idle
system.cpu.rename.BlockCycles                 2921678                       # Number of cycles rename is blocking
system.cpu.rename.serializeStallCycles           1502                       # count of cycles rename stalled for serializing inst
system.cpu.rename.RunCycles                  14390226                       # Number of cycles rename is running
system.cpu.rename.UnblockCycles               3059866                       # Number of cycles rename is unblocking
system.cpu.rename.RenamedInsts               31284454                       # Number of instructions processed by rename
system.cpu.rename.SquashedInsts                 35214                       # Number of squashed instructions processed by rename
system.cpu.rename.ROBFullEvents                    17                       # Number of times rename has blocked due to ROB full
system.cpu.rename.IQFullEvents                1395940                       # Number of times rename has blocked due to IQ full
system.cpu.rename.LQFullEvents                 819824                       # Number of times rename has blocked due to LQ full
system.cpu.rename.SQFullEvents                 272435                       # Number of times rename has blocked due to SQ full
system.cpu.rename.FullRegisterEvents             4730                       # Number of times there has been no free registers
system.cpu.rename.RenamedOperands            42644525                       # Number of destination operands rename has renamed
system.cpu.rename.RenameLookups              71467272                       # Number of register rename lookups that rename has made
system.cpu.rename.int_rename_lookups         47992297                       # Number of integer rename lookups
system.cpu.rename.fp_rename_lookups           5845425                       # Number of floating rename lookups
system.cpu.rename.CommittedMaps              41708822                       # Number of HB maps that are committed
system.cpu.rename.UndoneMaps                   935703                       # Number of HB maps that are undone due to squashing
system.cpu.rename.serializingInsts                 25                       # count of serializing insts renamed
system.cpu.rename.tempSerializingInsts             22                       # count of temporary serializing insts renamed
system.cpu.rename.skidInsts                   3366226                       # count of insts added to the skid buffer
system.cpu.memDep0.insertedLoads              8777149                       # Number of loads inserted to the mem dependence unit.
system.cpu.memDep0.insertedStores             2065017                       # Number of stores inserted to the mem dependence unit.
system.cpu.memDep0.conflictingLoads           3273060                       # Number of conflicting loads.
system.cpu.memDep0.conflictingStores           721159                       # Number of conflicting stores.
system.cpu.iq.iqInstsAdded                   31274577                       # Number of instructions added to the IQ (excludes non-spec)
system.cpu.iq.iqNonSpecInstsAdded                 105                       # Number of non-speculative instructions added to the IQ
system.cpu.iq.iqInstsIssued                  30947166                       # Number of instructions issued
system.cpu.iq.iqSquashedInstsIssued              5455                       # Number of squashed instructions issued
system.cpu.iq.iqSquashedInstsExamined          672487                       # Number of squashed instructions iterated over during squash; mainly for profiling
system.cpu.iq.iqSquashedOperandsExamined      1387101                       # Number of squashed operands that are examined and possibly removed from graph
system.cpu.iq.iqSquashedNonSpecRemoved             94                       # Number of squashed non-spec instructions that were removed
system.cpu.iq.issued_per_cycle::samples      23536478                       # Number of insts issued each cycle
system.cpu.iq.issued_per_cycle::mean         1.314860                       # Number of insts issued each cycle
system.cpu.iq.issued_per_cycle::stdev        0.752154                       # Number of insts issued each cycle
system.cpu.iq.issued_per_cycle::underflows            0      0.00%      0.00% # Number of insts issued each cycle
system.cpu.iq.issued_per_cycle::0             4119026     17.50%     17.50% # Number of insts issued each cycle
system.cpu.iq.issued_per_cycle::1             7887738     33.51%     51.01% # Number of insts issued each cycle
system.cpu.iq.issued_per_cycle::2            11529714     48.99%    100.00% # Number of insts issued each cycle
system.cpu.iq.issued_per_cycle::overflows            0      0.00%    100.00% # Number of insts issued each cycle
system.cpu.iq.issued_per_cycle::min_value            0                       # Number of insts issued each cycle
system.cpu.iq.issued_per_cycle::max_value            2                       # Number of insts issued each cycle
system.cpu.iq.issued_per_cycle::total        23536478                       # Number of insts issued each cycle
system.cpu.iq.fu_full::No_OpClass                   0      0.00%      0.00% # attempts to use FU when none available
system.cpu.iq.fu_full::IntAlu                       0      0.00%      0.00% # attempts to use FU when none available
system.cpu.iq.fu_full::IntMult                      0      0.00%      0.00% # attempts to use FU when none available
system.cpu.iq.fu_full::IntDiv                       0      0.00%      0.00% # attempts to use FU when none available
system.cpu.iq.fu_full::FloatAdd                671628     23.75%     23.75% # attempts to use FU when none available
system.cpu.iq.fu_full::FloatCmp                     0      0.00%     23.75% # attempts to use FU when none available
system.cpu.iq.fu_full::FloatCvt                     0      0.00%     23.75% # attempts to use FU when none available
system.cpu.iq.fu_full::FloatMult                    0      0.00%     23.75% # attempts to use FU when none available
system.cpu.iq.fu_full::FloatMultAcc                 0      0.00%     23.75% # attempts to use FU when none available
system.cpu.iq.fu_full::FloatDiv                     0      0.00%     23.75% # attempts to use FU when none available
system.cpu.iq.fu_full::FloatMisc                    0      0.00%     23.75% # attempts to use FU when none available
system.cpu.iq.fu_full::FloatSqrt                    0      0.00%     23.75% # attempts to use FU when none available
system.cpu.iq.fu_full::SimdAdd                    251      0.01%     23.76% # attempts to use FU when none available
system.cpu.iq.fu_full::SimdAddAcc                   0      0.00%     23.76% # attempts to use FU when none available
system.cpu.iq.fu_full::SimdAlu                     82      0.00%     23.76% # attempts to use FU when none available
system.cpu.iq.fu_full::SimdCmp                      0      0.00%     23.76% # attempts to use FU when none available
system.cpu.iq.fu_full::SimdCvt                     20      0.00%     23.76% # attempts to use FU when none available
system.cpu.iq.fu_full::SimdMisc                   126      0.00%     23.77% # attempts to use FU when none available
system.cpu.iq.fu_full::SimdMult                     0      0.00%     23.77% # attempts to use FU when none available
system.cpu.iq.fu_full::SimdMultAcc                  0      0.00%     23.77% # attempts to use FU when none available
system.cpu.iq.fu_full::SimdShift                  124      0.00%     23.77% # attempts to use FU when none available
system.cpu.iq.fu_full::SimdShiftAcc                 0      0.00%     23.77% # attempts to use FU when none available
system.cpu.iq.fu_full::SimdSqrt                     0      0.00%     23.77% # attempts to use FU when none available
system.cpu.iq.fu_full::SimdFloatAdd             26457      0.94%     24.71% # attempts to use FU when none available
system.cpu.iq.fu_full::SimdFloatAlu                 0      0.00%     24.71% # attempts to use FU when none available
system.cpu.iq.fu_full::SimdFloatCmp                 0      0.00%     24.71% # attempts to use FU when none available
system.cpu.iq.fu_full::SimdFloatCvt                 1      0.00%     24.71% # attempts to use FU when none available
system.cpu.iq.fu_full::SimdFloatDiv                 0      0.00%     24.71% # attempts to use FU when none available
system.cpu.iq.fu_full::SimdFloatMisc                0      0.00%     24.71% # attempts to use FU when none available
system.cpu.iq.fu_full::SimdFloatMult               15      0.00%     24.71% # attempts to use FU when none available
system.cpu.iq.fu_full::SimdFloatMultAcc             0      0.00%     24.71% # attempts to use FU when none available
system.cpu.iq.fu_full::SimdFloatSqrt                0      0.00%     24.71% # attempts to use FU when none available
system.cpu.iq.fu_full::SimdAes                      0      0.00%     24.71% # attempts to use FU when none available
system.cpu.iq.fu_full::SimdAesMix                   0      0.00%     24.71% # attempts to use FU when none available
system.cpu.iq.fu_full::SimdSha1Hash                 0      0.00%     24.71% # attempts to use FU when none available
system.cpu.iq.fu_full::SimdSha1Hash2                0      0.00%     24.71% # attempts to use FU when none available
system.cpu.iq.fu_full::SimdSha256Hash               0      0.00%     24.71% # attempts to use FU when none available
system.cpu.iq.fu_full::SimdSha256Hash2              0      0.00%     24.71% # attempts to use FU when none available
system.cpu.iq.fu_full::SimdShaSigma2                0      0.00%     24.71% # attempts to use FU when none available
system.cpu.iq.fu_full::SimdShaSigma3                0      0.00%     24.71% # attempts to use FU when none available
system.cpu.iq.fu_full::MemRead                2102647     74.36%     99.06% # attempts to use FU when none available
system.cpu.iq.fu_full::MemWrite                 26470      0.94%    100.00% # attempts to use FU when none available
system.cpu.iq.fu_full::FloatMemRead                 0      0.00%    100.00% # attempts to use FU when none available
system.cpu.iq.fu_full::FloatMemWrite                0      0.00%    100.00% # attempts to use FU when none available
system.cpu.iq.fu_full::IprAccess                    0      0.00%    100.00% # attempts to use FU when none available
system.cpu.iq.fu_full::InstPrefetch                 0      0.00%    100.00% # attempts to use FU when none available
system.cpu.iq.FU_type_0::No_OpClass               318      0.00%      0.00% # Type of FU issued
system.cpu.iq.FU_type_0::IntAlu              13631218     44.05%     44.05% # Type of FU issued
system.cpu.iq.FU_type_0::IntMult                30011      0.10%     44.14% # Type of FU issued
system.cpu.iq.FU_type_0::IntDiv                    31      0.00%     44.14% # Type of FU issued
system.cpu.iq.FU_type_0::FloatAdd             4842275     15.65%     59.79% # Type of FU issued
system.cpu.iq.FU_type_0::FloatCmp                   0      0.00%     59.79% # Type of FU issued
system.cpu.iq.FU_type_0::FloatCvt                   0      0.00%     59.79% # Type of FU issued
system.cpu.iq.FU_type_0::FloatMult                  0      0.00%     59.79% # Type of FU issued
system.cpu.iq.FU_type_0::FloatMultAcc               0      0.00%     59.79% # Type of FU issued
system.cpu.iq.FU_type_0::FloatDiv                   0      0.00%     59.79% # Type of FU issued
system.cpu.iq.FU_type_0::FloatMisc                  0      0.00%     59.79% # Type of FU issued
system.cpu.iq.FU_type_0::FloatSqrt                  0      0.00%     59.79% # Type of FU issued
system.cpu.iq.FU_type_0::SimdAdd                  375      0.00%     59.79% # Type of FU issued
system.cpu.iq.FU_type_0::SimdAddAcc                 0      0.00%     59.79% # Type of FU issued
system.cpu.iq.FU_type_0::SimdAlu                60259      0.19%     59.99% # Type of FU issued
system.cpu.iq.FU_type_0::SimdCmp                    0      0.00%     59.99% # Type of FU issued
system.cpu.iq.FU_type_0::SimdCvt                  117      0.00%     59.99% # Type of FU issued
system.cpu.iq.FU_type_0::SimdMisc               15296      0.05%     60.04% # Type of FU issued
system.cpu.iq.FU_type_0::SimdMult                   0      0.00%     60.04% # Type of FU issued
system.cpu.iq.FU_type_0::SimdMultAcc                0      0.00%     60.04% # Type of FU issued
system.cpu.iq.FU_type_0::SimdShift                186      0.00%     60.04% # Type of FU issued
system.cpu.iq.FU_type_0::SimdShiftAcc               0      0.00%     60.04% # Type of FU issued
system.cpu.iq.FU_type_0::SimdSqrt                   0      0.00%     60.04% # Type of FU issued
system.cpu.iq.FU_type_0::SimdFloatAdd          800689      2.59%     62.63% # Type of FU issued
system.cpu.iq.FU_type_0::SimdFloatAlu               0      0.00%     62.63% # Type of FU issued
system.cpu.iq.FU_type_0::SimdFloatCmp               0      0.00%     62.63% # Type of FU issued
system.cpu.iq.FU_type_0::SimdFloatCvt           15180      0.05%     62.67% # Type of FU issued
system.cpu.iq.FU_type_0::SimdFloatDiv              19      0.00%     62.67% # Type of FU issued
system.cpu.iq.FU_type_0::SimdFloatMisc              0      0.00%     62.67% # Type of FU issued
system.cpu.iq.FU_type_0::SimdFloatMult         800732      2.59%     65.26% # Type of FU issued
system.cpu.iq.FU_type_0::SimdFloatMultAcc            0      0.00%     65.26% # Type of FU issued
system.cpu.iq.FU_type_0::SimdFloatSqrt              0      0.00%     65.26% # Type of FU issued
system.cpu.iq.FU_type_0::SimdAes                    0      0.00%     65.26% # Type of FU issued
system.cpu.iq.FU_type_0::SimdAesMix                 0      0.00%     65.26% # Type of FU issued
system.cpu.iq.FU_type_0::SimdSha1Hash               0      0.00%     65.26% # Type of FU issued
system.cpu.iq.FU_type_0::SimdSha1Hash2              0      0.00%     65.26% # Type of FU issued
system.cpu.iq.FU_type_0::SimdSha256Hash             0      0.00%     65.26% # Type of FU issued
system.cpu.iq.FU_type_0::SimdSha256Hash2            0      0.00%     65.26% # Type of FU issued
system.cpu.iq.FU_type_0::SimdShaSigma2              0      0.00%     65.26% # Type of FU issued
system.cpu.iq.FU_type_0::SimdShaSigma3              0      0.00%     65.26% # Type of FU issued
system.cpu.iq.FU_type_0::MemRead              6330987     20.46%     85.72% # Type of FU issued
system.cpu.iq.FU_type_0::MemWrite             1141066      3.69%     89.41% # Type of FU issued
system.cpu.iq.FU_type_0::FloatMemRead         2417360      7.81%     97.22% # Type of FU issued
system.cpu.iq.FU_type_0::FloatMemWrite         861047      2.78%    100.00% # Type of FU issued
system.cpu.iq.FU_type_0::IprAccess                  0      0.00%    100.00% # Type of FU issued
system.cpu.iq.FU_type_0::InstPrefetch               0      0.00%    100.00% # Type of FU issued
system.cpu.iq.FU_type_0::total               30947166                       # Type of FU issued
system.cpu.iq.rate                           1.312889                       # Inst issue rate
system.cpu.iq.fu_busy_cnt                     2827821                       # FU busy when requested
system.cpu.iq.fu_busy_rate                   0.091376                       # FU busy rate (busy events/executed inst)
system.cpu.iq.int_inst_queue_reads           67935836                       # Number of integer instruction queue reads
system.cpu.iq.int_inst_queue_writes          22103486                       # Number of integer instruction queue writes
system.cpu.iq.int_inst_queue_wakeup_accesses     21007274                       # Number of integer instruction queue wakeup accesses
system.cpu.iq.fp_inst_queue_reads            20328250                       # Number of floating instruction queue reads
system.cpu.iq.fp_inst_queue_writes            9843881                       # Number of floating instruction queue writes
system.cpu.iq.fp_inst_queue_wakeup_accesses      9811929                       # Number of floating instruction queue wakeup accesses
system.cpu.iq.vec_inst_queue_reads                  0                       # Number of vector instruction queue reads
system.cpu.iq.vec_inst_queue_writes                 0                       # Number of vector instruction queue writes
system.cpu.iq.vec_inst_queue_wakeup_accesses            0                       # Number of vector instruction queue wakeup accesses
system.cpu.iq.int_alu_accesses               23261751                       # Number of integer alu accesses
system.cpu.iq.fp_alu_accesses                10512918                       # Number of floating point alu accesses
system.cpu.iq.vec_alu_accesses                      0                       # Number of vector alu accesses
system.cpu.iew.lsq.thread0.forwLoads          1758112                       # Number of loads that had data forwarded from stores
system.cpu.iew.lsq.thread0.invAddrLoads             0                       # Number of loads ignored due to an invalid address
system.cpu.iew.lsq.thread0.squashedLoads       201404                       # Number of loads squashed
system.cpu.iew.lsq.thread0.ignoredResponses           30                       # Number of memory responses ignored because the instruction is squashed
system.cpu.iew.lsq.thread0.memOrderViolation          198                       # Number of memory ordering violations
system.cpu.iew.lsq.thread0.squashedStores        65372                       # Number of stores squashed
system.cpu.iew.lsq.thread0.invAddrSwpfs             0                       # Number of software prefetches ignored due to an invalid address
system.cpu.iew.lsq.thread0.blockedLoads             0                       # Number of blocked loads due to partial load-store forwarding
system.cpu.iew.lsq.thread0.rescheduledLoads       100077                       # Number of loads that were rescheduled
system.cpu.iew.lsq.thread0.cacheBlocked             0                       # Number of times an access to memory failed due to the cache being blocked
system.cpu.iew.iewIdleCycles                        0                       # Number of cycles IEW is idle
system.cpu.iew.iewSquashCycles                  18820                       # Number of cycles IEW is squashing
system.cpu.iew.iewBlockCycles                  390563                       # Number of cycles IEW is blocking
system.cpu.iew.iewUnblockCycles                 46918                       # Number of cycles IEW is unblocking
system.cpu.iew.iewDispatchedInsts            31274682                       # Number of instructions dispatched to IQ
system.cpu.iew.iewDispSquashedInsts              2972                       # Number of squashed instructions skipped by dispatch
system.cpu.iew.iewDispLoadInsts               8777149                       # Number of dispatched load instructions
system.cpu.iew.iewDispStoreInsts              2065017                       # Number of dispatched store instructions
system.cpu.iew.iewDispNonSpecInsts                 48                       # Number of dispatched non-speculative instructions
system.cpu.iew.iewIQFullEvents                     13                       # Number of times the IQ has become full, causing a stall
system.cpu.iew.iewLSQFullEvents                 41914                       # Number of times the LSQ has become full, causing a stall
system.cpu.iew.memOrderViolationEvents            198                       # Number of memory order violations
system.cpu.iew.predictedTakenIncorrect          17409                       # Number of branches that were predicted taken incorrectly
system.cpu.iew.predictedNotTakenIncorrect         1391                       # Number of branches that were predicted not taken incorrectly
system.cpu.iew.branchMispredicts                18800                       # Number of branch mispredicts detected at execute
system.cpu.iew.iewExecutedInsts              30922554                       # Number of executed instructions
system.cpu.iew.iewExecLoadInsts               8747598                       # Number of load instructions executed
system.cpu.iew.iewExecSquashedInsts             24612                       # Number of squashed instructions skipped in execute
system.cpu.iew.exec_swp                             0                       # number of swp insts executed
system.cpu.iew.exec_nop                             0                       # number of nop insts executed
system.cpu.iew.exec_refs                     10749330                       # number of memory reference insts executed
system.cpu.iew.exec_branches                   657645                       # Number of branches executed
system.cpu.iew.exec_stores                    2001732                       # Number of stores executed
system.cpu.iew.exec_rate                     1.311845                       # Inst execution rate
system.cpu.iew.wb_sent                       30821403                       # cumulative count of insts sent to commit
system.cpu.iew.wb_count                      30819203                       # cumulative count of insts written-back
system.cpu.iew.wb_producers                  22525559                       # num instructions producing a value
system.cpu.iew.wb_consumers                  33117159                       # num instructions consuming a value
system.cpu.iew.wb_rate                       1.307460                       # insts written-back per cycle
system.cpu.iew.wb_fanout                     0.680178                       # average fanout of values written-back
system.cpu.commit.commitSquashedInsts          636048                       # The number of squashed insts skipped by commit
system.cpu.commit.commitNonSpecStalls              11                       # The number of times commit has been forced to stall to communicate backwards
system.cpu.commit.branchMispredicts             18631                       # The number of times a branch was mispredicted
system.cpu.commit.committed_per_cycle::samples     23484755                       # Number of insts commited each cycle
system.cpu.commit.committed_per_cycle::mean     1.303066                       # Number of insts commited each cycle
system.cpu.commit.committed_per_cycle::stdev     0.886094                       # Number of insts commited each cycle
system.cpu.commit.committed_per_cycle::underflows            0      0.00%      0.00% # Number of insts commited each cycle
system.cpu.commit.committed_per_cycle::0      6739475     28.70%     28.70% # Number of insts commited each cycle
system.cpu.commit.committed_per_cycle::1      2888366     12.30%     41.00% # Number of insts commited each cycle
system.cpu.commit.committed_per_cycle::2     13856914     59.00%    100.00% # Number of insts commited each cycle
system.cpu.commit.committed_per_cycle::overflows            0      0.00%    100.00% # Number of insts commited each cycle
system.cpu.commit.committed_per_cycle::min_value            0                       # Number of insts commited each cycle
system.cpu.commit.committed_per_cycle::max_value            2                       # Number of insts commited each cycle
system.cpu.commit.committed_per_cycle::total     23484755                       # Number of insts commited each cycle
system.cpu.commit.committedInsts             21439637                       # Number of instructions committed
system.cpu.commit.committedOps               30602194                       # Number of ops (including micro ops) committed
system.cpu.commit.swp_count                         0                       # Number of s/w prefetches committed
system.cpu.commit.refs                       10575390                       # Number of memory references committed
system.cpu.commit.loads                       8575745                       # Number of loads committed
system.cpu.commit.membars                           0                       # Number of memory barriers committed
system.cpu.commit.branches                     656587                       # Number of branches committed
system.cpu.commit.vec_insts                         0                       # Number of committed Vector instructions.
system.cpu.commit.fp_insts                    9804645                       # Number of committed floating point instructions.
system.cpu.commit.int_insts                  24090516                       # Number of committed integer instructions.
system.cpu.commit.function_calls                45197                       # Number of function calls committed.
system.cpu.commit.op_class_0::No_OpClass          108      0.00%      0.00% # Class of committed instruction
system.cpu.commit.op_class_0::IntAlu         13470648     44.02%     44.02% # Class of committed instruction
system.cpu.commit.op_class_0::IntMult           30009      0.10%     44.12% # Class of committed instruction
system.cpu.commit.op_class_0::IntDiv               28      0.00%     44.12% # Class of committed instruction
system.cpu.commit.op_class_0::FloatAdd        4833335     15.79%     59.91% # Class of committed instruction
system.cpu.commit.op_class_0::FloatCmp              0      0.00%     59.91% # Class of committed instruction
system.cpu.commit.op_class_0::FloatCvt              0      0.00%     59.91% # Class of committed instruction
system.cpu.commit.op_class_0::FloatMult             0      0.00%     59.91% # Class of committed instruction
system.cpu.commit.op_class_0::FloatMultAcc            0      0.00%     59.91% # Class of committed instruction
system.cpu.commit.op_class_0::FloatDiv              0      0.00%     59.91% # Class of committed instruction
system.cpu.commit.op_class_0::FloatMisc             0      0.00%     59.91% # Class of committed instruction
system.cpu.commit.op_class_0::FloatSqrt             0      0.00%     59.91% # Class of committed instruction
system.cpu.commit.op_class_0::SimdAdd             374      0.00%     59.91% # Class of committed instruction
system.cpu.commit.op_class_0::SimdAddAcc            0      0.00%     59.91% # Class of committed instruction
system.cpu.commit.op_class_0::SimdAlu           60196      0.20%     60.11% # Class of committed instruction
system.cpu.commit.op_class_0::SimdCmp               0      0.00%     60.11% # Class of committed instruction
system.cpu.commit.op_class_0::SimdCvt             116      0.00%     60.11% # Class of committed instruction
system.cpu.commit.op_class_0::SimdMisc          15268      0.05%     60.16% # Class of committed instruction
system.cpu.commit.op_class_0::SimdMult              0      0.00%     60.16% # Class of committed instruction
system.cpu.commit.op_class_0::SimdMultAcc            0      0.00%     60.16% # Class of committed instruction
system.cpu.commit.op_class_0::SimdShift           186      0.00%     60.16% # Class of committed instruction
system.cpu.commit.op_class_0::SimdShiftAcc            0      0.00%     60.16% # Class of committed instruction
system.cpu.commit.op_class_0::SimdSqrt              0      0.00%     60.16% # Class of committed instruction
system.cpu.commit.op_class_0::SimdFloatAdd       800661      2.62%     62.78% # Class of committed instruction
system.cpu.commit.op_class_0::SimdFloatAlu            0      0.00%     62.78% # Class of committed instruction
system.cpu.commit.op_class_0::SimdFloatCmp            0      0.00%     62.78% # Class of committed instruction
system.cpu.commit.op_class_0::SimdFloatCvt        15155      0.05%     62.83% # Class of committed instruction
system.cpu.commit.op_class_0::SimdFloatDiv           15      0.00%     62.83% # Class of committed instruction
system.cpu.commit.op_class_0::SimdFloatMisc            0      0.00%     62.83% # Class of committed instruction
system.cpu.commit.op_class_0::SimdFloatMult       800705      2.62%     65.44% # Class of committed instruction
system.cpu.commit.op_class_0::SimdFloatMultAcc            0      0.00%     65.44% # Class of committed instruction
system.cpu.commit.op_class_0::SimdFloatSqrt            0      0.00%     65.44% # Class of committed instruction
system.cpu.commit.op_class_0::SimdAes               0      0.00%     65.44% # Class of committed instruction
system.cpu.commit.op_class_0::SimdAesMix            0      0.00%     65.44% # Class of committed instruction
system.cpu.commit.op_class_0::SimdSha1Hash            0      0.00%     65.44% # Class of committed instruction
system.cpu.commit.op_class_0::SimdSha1Hash2            0      0.00%     65.44% # Class of committed instruction
system.cpu.commit.op_class_0::SimdSha256Hash            0      0.00%     65.44% # Class of committed instruction
system.cpu.commit.op_class_0::SimdSha256Hash2            0      0.00%     65.44% # Class of committed instruction
system.cpu.commit.op_class_0::SimdShaSigma2            0      0.00%     65.44% # Class of committed instruction
system.cpu.commit.op_class_0::SimdShaSigma3            0      0.00%     65.44% # Class of committed instruction
system.cpu.commit.op_class_0::MemRead         6158741     20.13%     85.57% # Class of committed instruction
system.cpu.commit.op_class_0::MemWrite        1138665      3.72%     89.29% # Class of committed instruction
system.cpu.commit.op_class_0::FloatMemRead      2417004      7.90%     97.19% # Class of committed instruction
system.cpu.commit.op_class_0::FloatMemWrite       860980      2.81%    100.00% # Class of committed instruction
system.cpu.commit.op_class_0::IprAccess             0      0.00%    100.00% # Class of committed instruction
system.cpu.commit.op_class_0::InstPrefetch            0      0.00%    100.00% # Class of committed instruction
system.cpu.commit.op_class_0::total          30602194                       # Class of committed instruction
system.cpu.commit.bw_lim_events              13856914                       # number cycles where commit BW limit reached
system.cpu.rob.rob_reads                     40866083                       # The number of ROB reads
system.cpu.rob.rob_writes                    62528208                       # The number of ROB writes
system.cpu.timesIdled                             373                       # Number of times that the entire CPU went into an idle state and unscheduled itself
system.cpu.idleCycles                           35327                       # Total number of cycles that the CPU has spent unscheduled due to idling
system.cpu.committedInsts                    21439637                       # Number of Instructions Simulated
system.cpu.committedOps                      30602194                       # Number of Ops (including micro ops) Simulated
system.cpu.cpi                               1.099450                       # CPI: Cycles Per Instruction
system.cpu.cpi_total                         1.099450                       # CPI: Total CPI of All Threads
system.cpu.ipc                               0.909546                       # IPC: Instructions Per Cycle
system.cpu.ipc_total                         0.909546                       # IPC: Total IPC of All Threads
system.cpu.int_regfile_reads                 47177777                       # number of integer regfile reads
system.cpu.int_regfile_writes                19239832                       # number of integer regfile writes
system.cpu.fp_regfile_reads                   5834806                       # number of floating regfile reads
system.cpu.fp_regfile_writes                  8951703                       # number of floating regfile writes
system.cpu.cc_regfile_reads                   5214786                       # number of cc regfile reads
system.cpu.cc_regfile_writes                 13775419                       # number of cc regfile writes
system.cpu.misc_regfile_reads                12126629                       # number of misc regfile reads
system.cpu.dcache.tags.pwrStateResidencyTicks::UNDEFINED  11785902000                       # Cumulative time (in ticks) in various power states
system.cpu.dcache.tags.tagsinuse           255.504197                       # Cycle average of tags in use
system.cpu.dcache.tags.total_refs             8854157                       # Total number of references to valid blocks.
system.cpu.dcache.tags.sampled_refs             31881                       # Sample count of references to valid blocks.
system.cpu.dcache.tags.avg_refs            277.725197                       # Average number of references to valid blocks.
system.cpu.dcache.tags.warmup_cycle            190000                       # Cycle when the warmup percentage was hit.
system.cpu.dcache.tags.occ_blocks::.cpu.data   255.504197                       # Average occupied blocks per requestor
system.cpu.dcache.tags.occ_percent::.cpu.data     0.998063                       # Average percentage of cache occupancy
system.cpu.dcache.tags.occ_percent::total     0.998063                       # Average percentage of cache occupancy
system.cpu.dcache.tags.occ_task_id_blocks::1024          256                       # Occupied blocks per task id
system.cpu.dcache.tags.age_task_id_blocks_1024::0           38                       # Occupied blocks per task id
system.cpu.dcache.tags.age_task_id_blocks_1024::1          216                       # Occupied blocks per task id
system.cpu.dcache.tags.age_task_id_blocks_1024::4            2                       # Occupied blocks per task id
system.cpu.dcache.tags.occ_task_id_percent::1024            1                       # Percentage of cache occupancy per task id
system.cpu.dcache.tags.tag_accesses          71143841                       # Number of tag accesses
system.cpu.dcache.tags.data_accesses         71143841                       # Number of data accesses
system.cpu.dcache.pwrStateResidencyTicks::UNDEFINED  11785902000                       # Cumulative time (in ticks) in various power states
system.cpu.dcache.ReadReq_hits::.cpu.data      6824653                       # number of ReadReq hits
system.cpu.dcache.ReadReq_hits::total         6824653                       # number of ReadReq hits
system.cpu.dcache.WriteReq_hits::.cpu.data      1997623                       # number of WriteReq hits
system.cpu.dcache.WriteReq_hits::total        1997623                       # number of WriteReq hits
system.cpu.dcache.demand_hits::.cpu.data      8822276                       # number of demand (read+write) hits
system.cpu.dcache.demand_hits::total          8822276                       # number of demand (read+write) hits
system.cpu.dcache.overall_hits::.cpu.data      8822276                       # number of overall hits
system.cpu.dcache.overall_hits::total         8822276                       # number of overall hits
system.cpu.dcache.ReadReq_misses::.cpu.data        64697                       # number of ReadReq misses
system.cpu.dcache.ReadReq_misses::total         64697                       # number of ReadReq misses
system.cpu.dcache.WriteReq_misses::.cpu.data         2022                       # number of WriteReq misses
system.cpu.dcache.WriteReq_misses::total         2022                       # number of WriteReq misses
system.cpu.dcache.demand_misses::.cpu.data        66719                       # number of demand (read+write) misses
system.cpu.dcache.demand_misses::total          66719                       # number of demand (read+write) misses
system.cpu.dcache.overall_misses::.cpu.data        66719                       # number of overall misses
system.cpu.dcache.overall_misses::total         66719                       # number of overall misses
system.cpu.dcache.ReadReq_miss_latency::.cpu.data    745925000                       # number of ReadReq miss cycles
system.cpu.dcache.ReadReq_miss_latency::total    745925000                       # number of ReadReq miss cycles
system.cpu.dcache.WriteReq_miss_latency::.cpu.data    165826500                       # number of WriteReq miss cycles
system.cpu.dcache.WriteReq_miss_latency::total    165826500                       # number of WriteReq miss cycles
system.cpu.dcache.demand_miss_latency::.cpu.data    911751500                       # number of demand (read+write) miss cycles
system.cpu.dcache.demand_miss_latency::total    911751500                       # number of demand (read+write) miss cycles
system.cpu.dcache.overall_miss_latency::.cpu.data    911751500                       # number of overall miss cycles
system.cpu.dcache.overall_miss_latency::total    911751500                       # number of overall miss cycles
system.cpu.dcache.ReadReq_accesses::.cpu.data      6889350                       # number of ReadReq accesses(hits+misses)
system.cpu.dcache.ReadReq_accesses::total      6889350                       # number of ReadReq accesses(hits+misses)
system.cpu.dcache.WriteReq_accesses::.cpu.data      1999645                       # number of WriteReq accesses(hits+misses)
system.cpu.dcache.WriteReq_accesses::total      1999645                       # number of WriteReq accesses(hits+misses)
system.cpu.dcache.demand_accesses::.cpu.data      8888995                       # number of demand (read+write) accesses
system.cpu.dcache.demand_accesses::total      8888995                       # number of demand (read+write) accesses
system.cpu.dcache.overall_accesses::.cpu.data      8888995                       # number of overall (read+write) accesses
system.cpu.dcache.overall_accesses::total      8888995                       # number of overall (read+write) accesses
system.cpu.dcache.ReadReq_miss_rate::.cpu.data     0.009391                       # miss rate for ReadReq accesses
system.cpu.dcache.ReadReq_miss_rate::total     0.009391                       # miss rate for ReadReq accesses
system.cpu.dcache.WriteReq_miss_rate::.cpu.data     0.001011                       # miss rate for WriteReq accesses
system.cpu.dcache.WriteReq_miss_rate::total     0.001011                       # miss rate for WriteReq accesses
system.cpu.dcache.demand_miss_rate::.cpu.data     0.007506                       # miss rate for demand accesses
system.cpu.dcache.demand_miss_rate::total     0.007506                       # miss rate for demand accesses
system.cpu.dcache.overall_miss_rate::.cpu.data     0.007506                       # miss rate for overall accesses
system.cpu.dcache.overall_miss_rate::total     0.007506                       # miss rate for overall accesses
system.cpu.dcache.ReadReq_avg_miss_latency::.cpu.data 11529.514506                       # average ReadReq miss latency
system.cpu.dcache.ReadReq_avg_miss_latency::total 11529.514506                       # average ReadReq miss latency
system.cpu.dcache.WriteReq_avg_miss_latency::.cpu.data 82011.127596                       # average WriteReq miss latency
system.cpu.dcache.WriteReq_avg_miss_latency::total 82011.127596                       # average WriteReq miss latency
system.cpu.dcache.demand_avg_miss_latency::.cpu.data 13665.545047                       # average overall miss latency
system.cpu.dcache.demand_avg_miss_latency::total 13665.545047                       # average overall miss latency
[...]
system.l3bus.snoop_fanout::min_value                0                       # Request fanout histogram
system.l3bus.snoop_fanout::max_value                0                       # Request fanout histogram
system.l3bus.snoop_fanout::total                 2921                       # Request fanout histogram
system.l3bus.reqLayer0.occupancy              1463000                       # Layer occupancy (ticks)
system.l3bus.reqLayer0.utilization                0.0                       # Layer utilization (%)
system.l3bus.respLayer0.occupancy             7302500                       # Layer occupancy (ticks)
system.l3bus.respLayer0.utilization               0.1                       # Layer utilization (%)
system.l3cache.tags.pwrStateResidencyTicks::UNDEFINED  11785902000                       # Cumulative time (in ticks) in various power states
system.l3cache.tags.tagsinuse             2442.504499                       # Cycle average of tags in use
system.l3cache.tags.total_refs                   2921                       # Total number of references to valid blocks.
system.l3cache.tags.sampled_refs                 2921                       # Sample count of references to valid blocks.
system.l3cache.tags.avg_refs                        1                       # Average number of references to valid blocks.
system.l3cache.tags.warmup_cycle                76000                       # Cycle when the warmup percentage was hit.
system.l3cache.tags.occ_blocks::.cpu.inst   401.070431                       # Average occupied blocks per requestor
system.l3cache.tags.occ_blocks::.cpu.data  2041.434067                       # Average occupied blocks per requestor
system.l3cache.tags.occ_percent::.cpu.inst     0.012240                       # Average percentage of cache occupancy
system.l3cache.tags.occ_percent::.cpu.data     0.062300                       # Average percentage of cache occupancy
system.l3cache.tags.occ_percent::total       0.074539                       # Average percentage of cache occupancy
system.l3cache.tags.occ_task_id_blocks::1024         2921                       # Occupied blocks per task id
system.l3cache.tags.age_task_id_blocks_1024::0          162                       # Occupied blocks per task id
system.l3cache.tags.age_task_id_blocks_1024::1           76                       # Occupied blocks per task id
system.l3cache.tags.age_task_id_blocks_1024::3          211                       # Occupied blocks per task id
system.l3cache.tags.age_task_id_blocks_1024::4         2472                       # Occupied blocks per task id
system.l3cache.tags.occ_task_id_percent::1024     0.089142                       # Percentage of cache occupancy per task id
system.l3cache.tags.tag_accesses                49657                       # Number of tag accesses
system.l3cache.tags.data_accesses               49657                       # Number of data accesses
system.l3cache.pwrStateResidencyTicks::UNDEFINED  11785902000                       # Cumulative time (in ticks) in various power states
system.l3cache.ReadExReq_misses::.cpu.data         2001                       # number of ReadExReq misses
system.l3cache.ReadExReq_misses::total           2001                       # number of ReadExReq misses
system.l3cache.ReadSharedReq_misses::.cpu.inst          612                       # number of ReadSharedReq misses
system.l3cache.ReadSharedReq_misses::.cpu.data          308                       # number of ReadSharedReq misses
system.l3cache.ReadSharedReq_misses::total          920                       # number of ReadSharedReq misses
system.l3cache.demand_misses::.cpu.inst           612                       # number of demand (read+write) misses
system.l3cache.demand_misses::.cpu.data          2309                       # number of demand (read+write) misses
system.l3cache.demand_misses::total              2921                       # number of demand (read+write) misses
system.l3cache.overall_misses::.cpu.inst          612                       # number of overall misses
system.l3cache.overall_misses::.cpu.data         2309                       # number of overall misses
system.l3cache.overall_misses::total             2921                       # number of overall misses
system.l3cache.ReadExReq_miss_latency::.cpu.data    138457500                       # number of ReadExReq miss cycles
system.l3cache.ReadExReq_miss_latency::total    138457500                       # number of ReadExReq miss cycles
system.l3cache.ReadSharedReq_miss_latency::.cpu.inst     45797500                       # number of ReadSharedReq miss cycles
system.l3cache.ReadSharedReq_miss_latency::.cpu.data     27035500                       # number of ReadSharedReq miss cycles
system.l3cache.ReadSharedReq_miss_latency::total     72833000                       # number of ReadSharedReq miss cycles
system.l3cache.demand_miss_latency::.cpu.inst     45797500                       # number of demand (read+write) miss cycles
system.l3cache.demand_miss_latency::.cpu.data    165493000                       # number of demand (read+write) miss cycles
system.l3cache.demand_miss_latency::total    211290500                       # number of demand (read+write) miss cycles
system.l3cache.overall_miss_latency::.cpu.inst     45797500                       # number of overall miss cycles
system.l3cache.overall_miss_latency::.cpu.data    165493000                       # number of overall miss cycles
system.l3cache.overall_miss_latency::total    211290500                       # number of overall miss cycles
system.l3cache.ReadExReq_accesses::.cpu.data         2001                       # number of ReadExReq accesses(hits+misses)
system.l3cache.ReadExReq_accesses::total         2001                       # number of ReadExReq accesses(hits+misses)
system.l3cache.ReadSharedReq_accesses::.cpu.inst          612                       # number of ReadSharedReq accesses(hits+misses)
system.l3cache.ReadSharedReq_accesses::.cpu.data          308                       # number of ReadSharedReq accesses(hits+misses)
system.l3cache.ReadSharedReq_accesses::total          920                       # number of ReadSharedReq accesses(hits+misses)
system.l3cache.demand_accesses::.cpu.inst          612                       # number of demand (read+write) accesses
system.l3cache.demand_accesses::.cpu.data         2309                       # number of demand (read+write) accesses
system.l3cache.demand_accesses::total            2921                       # number of demand (read+write) accesses
system.l3cache.overall_accesses::.cpu.inst          612                       # number of overall (read+write) accesses
system.l3cache.overall_accesses::.cpu.data         2309                       # number of overall (read+write) accesses
system.l3cache.overall_accesses::total           2921                       # number of overall (read+write) accesses
system.l3cache.ReadExReq_miss_rate::.cpu.data            1                       # miss rate for ReadExReq accesses
system.l3cache.ReadExReq_miss_rate::total            1                       # miss rate for ReadExReq accesses
system.l3cache.ReadSharedReq_miss_rate::.cpu.inst            1                       # miss rate for ReadSharedReq accesses
system.l3cache.ReadSharedReq_miss_rate::.cpu.data            1                       # miss rate for ReadSharedReq accesses
system.l3cache.ReadSharedReq_miss_rate::total            1                       # miss rate for ReadSharedReq accesses
system.l3cache.demand_miss_rate::.cpu.inst            1                       # miss rate for demand accesses
system.l3cache.demand_miss_rate::.cpu.data            1                       # miss rate for demand accesses
system.l3cache.demand_miss_rate::total              1                       # miss rate for demand accesses
system.l3cache.overall_miss_rate::.cpu.inst            1                       # miss rate for overall accesses
system.l3cache.overall_miss_rate::.cpu.data            1                       # miss rate for overall accesses
system.l3cache.overall_miss_rate::total             1                       # miss rate for overall accesses
system.l3cache.ReadExReq_avg_miss_latency::.cpu.data 69194.152924                       # average ReadExReq miss latency
system.l3cache.ReadExReq_avg_miss_latency::total 69194.152924                       # average ReadExReq miss latency
system.l3cache.ReadSharedReq_avg_miss_latency::.cpu.inst 74832.516340                       # average ReadSharedReq miss latency
system.l3cache.ReadSharedReq_avg_miss_latency::.cpu.data 87777.597403                       # average ReadSharedReq miss latency
system.l3cache.ReadSharedReq_avg_miss_latency::total 79166.304348                       # average ReadSharedReq miss latency
system.l3cache.demand_avg_miss_latency::.cpu.inst 74832.516340                       # average overall miss latency
system.l3cache.demand_avg_miss_latency::.cpu.data 71673.018623                       # average overall miss latency
system.l3cache.demand_avg_miss_latency::total 72334.988018                       # average overall miss latency
system.l3cache.overall_avg_miss_latency::.cpu.inst 74832.516340                       # average overall miss latency
system.l3cache.overall_avg_miss_latency::.cpu.data 71673.018623                       # average overall miss latency
system.l3cache.overall_avg_miss_latency::total 72334.988018                       # average overall miss latency
system.l3cache.blocked_cycles::no_mshrs             0                       # number of cycles access was blocked
system.l3cache.blocked_cycles::no_targets            0                       # number of cycles access was blocked
system.l3cache.blocked::no_mshrs                    0                       # number of cycles access was blocked
system.l3cache.blocked::no_targets                  0                       # number of cycles access was blocked
system.l3cache.avg_blocked_cycles::no_mshrs          nan                       # average number of cycles each access was blocked
system.l3cache.avg_blocked_cycles::no_targets          nan                       # average number of cycles each access was blocked
system.l3cache.ReadExReq_mshr_misses::.cpu.data         2001                       # number of ReadExReq MSHR misses
system.l3cache.ReadExReq_mshr_misses::total         2001                       # number of ReadExReq MSHR misses
system.l3cache.ReadSharedReq_mshr_misses::.cpu.inst          612                       # number of ReadSharedReq MSHR misses
system.l3cache.ReadSharedReq_mshr_misses::.cpu.data          308                       # number of ReadSharedReq MSHR misses
system.l3cache.ReadSharedReq_mshr_misses::total          920                       # number of ReadSharedReq MSHR misses
system.l3cache.demand_mshr_misses::.cpu.inst          612                       # number of demand (read+write) MSHR misses
system.l3cache.demand_mshr_misses::.cpu.data         2309                       # number of demand (read+write) MSHR misses
system.l3cache.demand_mshr_misses::total         2921                       # number of demand (read+write) MSHR misses
system.l3cache.overall_mshr_misses::.cpu.inst          612                       # number of overall MSHR misses
system.l3cache.overall_mshr_misses::.cpu.data         2309                       # number of overall MSHR misses
system.l3cache.overall_mshr_misses::total         2921                       # number of overall MSHR misses
system.l3cache.ReadExReq_mshr_miss_latency::.cpu.data    134455500                       # number of ReadExReq MSHR miss cycles
system.l3cache.ReadExReq_mshr_miss_latency::total    134455500                       # number of ReadExReq MSHR miss cycles
system.l3cache.ReadSharedReq_mshr_miss_latency::.cpu.inst     44573500                       # number of ReadSharedReq MSHR miss cycles
system.l3cache.ReadSharedReq_mshr_miss_latency::.cpu.data     26419500                       # number of ReadSharedReq MSHR miss cycles
system.l3cache.ReadSharedReq_mshr_miss_latency::total     70993000                       # number of ReadSharedReq MSHR miss cycles
system.l3cache.demand_mshr_miss_latency::.cpu.inst     44573500                       # number of demand (read+write) MSHR miss cycles
system.l3cache.demand_mshr_miss_latency::.cpu.data    160875000                       # number of demand (read+write) MSHR miss cycles
system.l3cache.demand_mshr_miss_latency::total    205448500                       # number of demand (read+write) MSHR miss cycles
system.l3cache.overall_mshr_miss_latency::.cpu.inst     44573500                       # number of overall MSHR miss cycles
system.l3cache.overall_mshr_miss_latency::.cpu.data    160875000                       # number of overall MSHR miss cycles
system.l3cache.overall_mshr_miss_latency::total    205448500                       # number of overall MSHR miss cycles
system.l3cache.ReadExReq_mshr_miss_rate::.cpu.data            1                       # mshr miss rate for ReadExReq accesses
system.l3cache.ReadExReq_mshr_miss_rate::total            1                       # mshr miss rate for ReadExReq accesses
system.l3cache.ReadSharedReq_mshr_miss_rate::.cpu.inst            1                       # mshr miss rate for ReadSharedReq accesses
system.l3cache.ReadSharedReq_mshr_miss_rate::.cpu.data            1                       # mshr miss rate for ReadSharedReq accesses
system.l3cache.ReadSharedReq_mshr_miss_rate::total            1                       # mshr miss rate for ReadSharedReq accesses
system.l3cache.demand_mshr_miss_rate::.cpu.inst            1                       # mshr miss rate for demand accesses
system.l3cache.demand_mshr_miss_rate::.cpu.data            1                       # mshr miss rate for demand accesses
system.l3cache.demand_mshr_miss_rate::total            1                       # mshr miss rate for demand accesses
system.l3cache.overall_mshr_miss_rate::.cpu.inst            1                       # mshr miss rate for overall accesses
system.l3cache.overall_mshr_miss_rate::.cpu.data            1                       # mshr miss rate for overall accesses
system.l3cache.overall_mshr_miss_rate::total            1                       # mshr miss rate for overall accesses
system.l3cache.ReadExReq_avg_mshr_miss_latency::.cpu.data 67194.152924                       # average ReadExReq mshr miss latency
system.l3cache.ReadExReq_avg_mshr_miss_latency::total 67194.152924                       # average ReadExReq mshr miss latency
system.l3cache.ReadSharedReq_avg_mshr_miss_latency::.cpu.inst 72832.516340                       # average ReadSharedReq mshr miss latency
system.l3cache.ReadSharedReq_avg_mshr_miss_latency::.cpu.data 85777.597403                       # average ReadSharedReq mshr miss latency
system.l3cache.ReadSharedReq_avg_mshr_miss_latency::total 77166.304348                       # average ReadSharedReq mshr miss latency
system.l3cache.demand_avg_mshr_miss_latency::.cpu.inst 72832.516340                       # average overall mshr miss latency
system.l3cache.demand_avg_mshr_miss_latency::.cpu.data 69673.018623                       # average overall mshr miss latency
system.l3cache.demand_avg_mshr_miss_latency::total 70334.988018                       # average overall mshr miss latency
system.l3cache.overall_avg_mshr_miss_latency::.cpu.inst 72832.516340                       # average overall mshr miss latency
system.l3cache.overall_avg_mshr_miss_latency::.cpu.data 69673.018623                       # average overall mshr miss latency
system.l3cache.overall_avg_mshr_miss_latency::total 70334.988018                       # average overall mshr miss latency
system.l3cache.replacements                         0                       # number of replacements
system.membus.snoop_filter.tot_requests          2921                       # Total number of requests made to the snoop filter.
system.membus.snoop_filter.hit_single_requests            0                       # Number of requests hitting in the snoop filter with a single holder of the requested data.
system.membus.snoop_filter.hit_multi_requests            0                       # Number of requests hitting in the snoop filter with multiple (>1) holders of the requested data.
system.membus.snoop_filter.tot_snoops               0                       # Total number of snoops made to the snoop filter.
system.membus.snoop_filter.hit_single_snoops            0                       # Number of snoops hitting in the snoop filter with a single holder of the requested data.
system.membus.snoop_filter.hit_multi_snoops            0                       # Number of snoops hitting in the snoop filter with multiple (>1) holders of the requested data.
system.membus.pwrStateResidencyTicks::UNDEFINED  11785902000                       # Cumulative time (in ticks) in various power states
system.membus.trans_dist::ReadResp                920                       # Transaction distribution
system.membus.trans_dist::ReadExReq              2001                       # Transaction distribution
system.membus.trans_dist::ReadExResp             2001                       # Transaction distribution
system.membus.trans_dist::ReadSharedReq           920                       # Transaction distribution
system.membus.pkt_count_system.l3cache.mem_side::system.mem_ctrl.port         5842                       # Packet count per connected master and slave (bytes)
system.membus.pkt_count_system.l3cache.mem_side::total         5842                       # Packet count per connected master and slave (bytes)
system.membus.pkt_count::total                   5842                       # Packet count per connected master and slave (bytes)
system.membus.pkt_size_system.l3cache.mem_side::system.mem_ctrl.port       186944                       # Cumulative packet size per connected master and slave (bytes)
system.membus.pkt_size_system.l3cache.mem_side::total       186944                       # Cumulative packet size per connected master and slave (bytes)
system.membus.pkt_size::total                  186944                       # Cumulative packet size per connected master and slave (bytes)
system.membus.snoops                                0                       # Total snoops (count)
system.membus.snoopTraffic                          0                       # Total snoop traffic (bytes)
system.membus.snoop_fanout::samples              2921                       # Request fanout histogram
system.membus.snoop_fanout::mean                    0                       # Request fanout histogram
system.membus.snoop_fanout::stdev                   0                       # Request fanout histogram
system.membus.snoop_fanout::underflows              0      0.00%      0.00% # Request fanout histogram
system.membus.snoop_fanout::0                    2921    100.00%    100.00% # Request fanout histogram
system.membus.snoop_fanout::1                       0      0.00%    100.00% # Request fanout histogram
system.membus.snoop_fanout::overflows               0      0.00%    100.00% # Request fanout histogram
system.membus.snoop_fanout::min_value               0                       # Request fanout histogram
system.membus.snoop_fanout::max_value               0                       # Request fanout histogram
system.membus.snoop_fanout::total                2921                       # Request fanout histogram
system.membus.reqLayer0.occupancy             1460500                       # Layer occupancy (ticks)
system.membus.reqLayer0.utilization               0.0                       # Layer utilization (%)
system.membus.respLayer0.occupancy            7956500                       # Layer occupancy (ticks)
system.membus.respLayer0.utilization              0.1                       # Layer utilization (%)

---------- End Simulation Statistics   ----------