
---------- Begin Simulation Statistics ----------
sim_seconds                                  0.011212                       # Number of seconds simulated
sim_ticks                                 11211649000                       # Number of ticks simulated
final_tick                                11211649000                       # Number of ticks from beginning of simulation (restored from checkpoints and never reset)
sim_freq                                 1000000000000                       # Frequency of simulated ticks
host_inst_rate                                 406370                       # Simulator instruction rate (inst/s)
host_op_rate                                   690918                       # Simulator op (including micro ops) rate (op/s)
host_tick_rate                              379337169                       # Simulator tick rate (ticks/s)
host_mem_usage                               10372872                       # Number of bytes of host memory used
host_seconds                                    29.56                       # Real time elapsed on the host
sim_insts                                    12010628                       # Number of instructions simulated
sim_ops                                      20420699                       # Number of ops (including micro ops) simulated
system.clk_domain.voltage_domain.voltage            1                       # Voltage in Volts
system.clk_domain.clock                           500                       # Clock period in ticks
system.mem_ctrl.pwrStateResidencyTicks::UNDEFINED  11211649000                       # Cumulative time (in ticks) in various power states
system.mem_ctrl.bytes_read::.cpu.inst           39104                       # Number of bytes read from this memory
system.mem_ctrl.bytes_read::.cpu.data         4818112                       # Number of bytes read from this memory
system.mem_ctrl.bytes_read::total             4857216                       # Number of bytes read from this memory
system.mem_ctrl.bytes_inst_read::.cpu.inst        39104                       # Number of instructions bytes read from this memory
system.mem_ctrl.bytes_inst_read::total          39104                       # Number of instructions bytes read from this memory
system.mem_ctrl.bytes_written::.writebacks      2732608                       # Number of bytes written to this memory
system.mem_ctrl.bytes_written::total          2732608                       # Number of bytes written to this memory
system.mem_ctrl.num_reads::.cpu.inst              611                       # Number of read requests responded to by this memory
system.mem_ctrl.num_reads::.cpu.data            75283                       # Number of read requests responded to by this memory
system.mem_ctrl.num_reads::total                75894                       # Number of read requests responded to by this memory
system.mem_ctrl.num_writes::.writebacks         42697                       # Number of write requests responded to by this memory
system.mem_ctrl.num_writes::total               42697                       # Number of write requests responded to by this memory
system.mem_ctrl.bw_read::.cpu.inst            3487801                       # Total read bandwidth from this memory (bytes/s)
system.mem_ctrl.bw_read::.cpu.data          429741602                       # Total read bandwidth from this memory (bytes/s)
system.mem_ctrl.bw_read::total              433229403                       # Total read bandwidth from this memory (bytes/s)
system.mem_ctrl.bw_inst_read::.cpu.inst       3487801                       # Instruction read bandwidth from this memory (bytes/s)
system.mem_ctrl.bw_inst_read::total           3487801                       # Instruction read bandwidth from this memory (bytes/s)
system.mem_ctrl.bw_write::.writebacks       243729357                       # Write bandwidth from this memory (bytes/s)
system.mem_ctrl.bw_write::total             243729357                       # Write bandwidth from this memory (bytes/s)
system.mem_ctrl.bw_total::.writebacks       243729357                       # Total bandwidth to/from this memory (bytes/s)
system.mem_ctrl.bw_total::.cpu.inst           3487801                       # Total bandwidth to/from this memory (bytes/s)
system.mem_ctrl.bw_total::.cpu.data         429741602                       # Total bandwidth to/from this memory (bytes/s)
system.mem_ctrl.bw_total::total             676958760                       # Total bandwidth to/from this memory (bytes/s)
system.mem_ctrl.avgPriority_.writebacks::samples     42697.00                       # Average QoS priority value for accepted requests
system.mem_ctrl.avgPriority_.cpu.inst::samples       611.00                       # Average QoS priority value for accepted requests
system.mem_ctrl.avgPriority_.cpu.data::samples     75283.00                       # Average QoS priority value for accepted requests
system.mem_ctrl.priorityMinLatency       0.000000018750                       # per QoS priority minimum request to response latency (s)
system.mem_ctrl.priorityMaxLatency       0.000071003500                       # per QoS priority maximum request to response latency (s)
system.mem_ctrl.numReadWriteTurnArounds          2482                       # Number of turnarounds from READ to WRITE
system.mem_ctrl.numWriteReadTurnArounds          2482                       # Number of turnarounds from WRITE to READ
system.mem_ctrl.numStayReadState               193782                       # Number of times bus staying in READ state
system.mem_ctrl.numStayWriteState               40319                       # Number of times bus staying in WRITE state
system.mem_ctrl.readReqs                        75894                       # Number of read requests accepted
system.mem_ctrl.writeReqs                       42697                       # Number of write requests accepted
system.mem_ctrl.readBursts                      75894                       # Number of DRAM read bursts, including those serviced by the write queue
system.mem_ctrl.writeBursts                     42697                       # Number of DRAM write bursts, including those merged in the write queue
system.mem_ctrl.bytesReadDRAM                 4857216                       # Total number of bytes read from DRAM
system.mem_ctrl.bytesReadWrQ                        0                       # Total number of bytes read from write queue
system.mem_ctrl.bytesWritten                  2730688                       # Total number of bytes written to DRAM
system.mem_ctrl.bytesReadSys                  4857216                       # Total read bytes from the system interface side
system.mem_ctrl.bytesWrittenSys               2732608                       # Total written bytes from the system interface side
system.mem_ctrl.servicedByWrQ                       0                       # Number of DRAM read bursts serviced by the write queue
system.mem_ctrl.mergedWrBursts                      0                       # Number of DRAM write bursts merged with an existing one
system.mem_ctrl.neitherReadNorWriteReqs             0                       # Number of requests that are neither read nor write
system.mem_ctrl.perBankRdBursts::0               4768                       # Per bank write bursts
system.mem_ctrl.perBankRdBursts::1               4703                       # Per bank write bursts
system.mem_ctrl.perBankRdBursts::2               4749                       # Per bank write bursts
system.mem_ctrl.perBankRdBursts::3               4746                       # Per bank write bursts
system.mem_ctrl.perBankRdBursts::4               4748                       # Per bank write bursts
system.mem_ctrl.perBankRdBursts::5               4776                       # Per bank write bursts
system.mem_ctrl.perBankRdBursts::6               4778                       # Per bank write bursts
system.mem_ctrl.perBankRdBursts::7               4786                       # Per bank write bursts
system.mem_ctrl.perBankRdBursts::8               4739                       # Per bank write bursts
system.mem_ctrl.perBankRdBursts::9               4767                       # Per bank write bursts
system.mem_ctrl.perBankRdBursts::10              4784                       # Per bank write bursts
system.mem_ctrl.perBankRdBursts::11              4684                       # Per bank write bursts
system.mem_ctrl.perBankRdBursts::12              4716                       # Per bank write bursts
system.mem_ctrl.perBankRdBursts::13              4684                       # Per bank write bursts
system.mem_ctrl.perBankRdBursts::14              4762                       # Per bank write bursts
system.mem_ctrl.perBankRdBursts::15              4704                       # Per bank write bursts
system.mem_ctrl.perBankWrBursts::0               2652                       # Per bank write bursts
system.mem_ctrl.perBankWrBursts::1               2628                       # Per bank write bursts
system.mem_ctrl.perBankWrBursts::2               2691                       # Per bank write bursts
system.mem_ctrl.perBankWrBursts::3               2691                       # Per bank write bursts
system.mem_ctrl.perBankWrBursts::4               2693                       # Per bank write bursts
system.mem_ctrl.perBankWrBursts::5               2693                       # Per bank write bursts
system.mem_ctrl.perBankWrBursts::6               2692                       # Per bank write bursts
system.mem_ctrl.perBankWrBursts::7               2721                       # Per bank write bursts
system.mem_ctrl.perBankWrBursts::8               2688                       # Per bank write bursts
system.mem_ctrl.perBankWrBursts::9               2707                       # Per bank write bursts
system.mem_ctrl.perBankWrBursts::10              2710                       # Per bank write bursts
system.mem_ctrl.perBankWrBursts::11              2628                       # Per bank write bursts
system.mem_ctrl.perBankWrBursts::12              2616                       # Per bank write bursts
system.mem_ctrl.perBankWrBursts::13              2600                       # Per bank write bursts
system.mem_ctrl.perBankWrBursts::14              2635                       # Per bank write bursts
system.mem_ctrl.perBankWrBursts::15              2622                       # Per bank write bursts
system.mem_ctrl.numRdRetry                          0                       # Number of times read queue was full causing retry
system.mem_ctrl.numWrRetry                          0                       # Number of times write queue was full causing retry
system.mem_ctrl.totGap                    11211613000                       # Total gap between requests
system.mem_ctrl.readPktSize::0                      0                       # Read request sizes (log2)
system.mem_ctrl.readPktSize::1                      0                       # Read request sizes (log2)
system.mem_ctrl.readPktSize::2                      0                       # Read request sizes (log2)
system.mem_ctrl.readPktSize::3                      0                       # Read request sizes (log2)
system.mem_ctrl.readPktSize::4                      0                       # Read request sizes (log2)
system.mem_ctrl.readPktSize::5                      0                       # Read request sizes (log2)
system.mem_ctrl.readPktSize::6                  75894                       # Read request sizes (log2)
system.mem_ctrl.writePktSize::0                     0                       # Write request sizes (log2)
system.mem_ctrl.writePktSize::1                     0                       # Write request sizes (log2)
system.mem_ctrl.writePktSize::2                     0                       # Write request sizes (log2)
system.mem_ctrl.writePktSize::3                     0                       # Write request sizes (log2)
system.mem_ctrl.writePktSize::4                     0                       # Write request sizes (log2)
system.mem_ctrl.writePktSize::5                     0                       # Write request sizes (log2)
system.mem_ctrl.writePktSize::6                 42697                       # Write request sizes (log2)
system.mem_ctrl.rdQLenPdf::0                    75549                       # What read queue length does an incoming req see
system.mem_ctrl.rdQLenPdf::1                      256                       # What read queue length does an incoming req see
system.mem_ctrl.rdQLenPdf::2                       72                       # What read queue length does an incoming req see
system.mem_ctrl.rdQLenPdf::3                       16                       # What read queue length does an incoming req see
system.mem_ctrl.rdQLenPdf::4                        1                       # What read queue length does an incoming req see
system.mem_ctrl.rdQLenPdf::5                        0                       # What read queue length does an incoming req see
system.mem_ctrl.rdQLenPdf::6                        0                       # What read queue length does an incoming req see
system.mem_ctrl.rdQLenPdf::7                        0                       # What read queue length does an incoming req see
system.mem_ctrl.rdQLenPdf::8                        0                       # What read queue length does an incoming req see
system.mem_ctrl.rdQLenPdf::9                        0                       # What read queue length does an incoming req see
system.mem_ctrl.rdQLenPdf::10                       0                       # What read queue length does an incoming req see
system.mem_ctrl.rdQLenPdf::11                       0                       # What read queue length does an incoming req see
system.mem_ctrl.rdQLenPdf::12                       0                       # What read queue length does an incoming req see
system.mem_ctrl.rdQLenPdf::13                       0                       # What read queue length does an incoming req see
system.mem_ctrl.rdQLenPdf::14                       0                       # What read queue length does an incoming req see
system.mem_ctrl.rdQLenPdf::15                       0                       # What read queue length does an incoming req see
system.mem_ctrl.rdQLenPdf::16                       0                       # What read queue length does an incoming req see
system.mem_ctrl.rdQLenPdf::17                       0                       # What read queue length does an incoming req see
system.mem_ctrl.rdQLenPdf::18                       0                       # What read queue length does an incoming req see
system.mem_ctrl.rdQLenPdf::19                       0                       # What read queue length does an incoming req see
system.mem_ctrl.rdQLenPdf::20                       0                       # What read queue length does an incoming req see
system.mem_ctrl.rdQLenPdf::21                       0                       # What read queue length does an incoming req see
system.mem_ctrl.rdQLenPdf::22                       0                       # What read queue length does an incoming req see
system.mem_ctrl.rdQLenPdf::23                       0                       # What read queue length does an incoming req see
system.mem_ctrl.rdQLenPdf::24                       0                       # What read queue length does an incoming req see
system.mem_ctrl.rdQLenPdf::25                       0                       # What read queue length does an incoming req see
system.mem_ctrl.rdQLenPdf::26                       0                       # What read queue length does an incoming req see
system.mem_ctrl.rdQLenPdf::27                       0                       # What read queue length does an incoming req see
system.mem_ctrl.rdQLenPdf::28                       0                       # What read queue length does an incoming req see
system.mem_ctrl.rdQLenPdf::29                       0                       # What read queue length does an incoming req see
system.mem_ctrl.rdQLenPdf::30                       0                       # What read queue length does an incoming req see
system.mem_ctrl.rdQLenPdf::31                       0                       # What read queue length does an incoming req see
system.mem_ctrl.wrQLenPdf::0                        1                       # What write queue length does an incoming req see
system.mem_ctrl.wrQLenPdf::1                        1                       # What write queue length does an incoming req see
system.mem_ctrl.wrQLenPdf::2                        1                       # What write queue length does an incoming req see
system.mem_ctrl.wrQLenPdf::3                        1                       # What write queue length does an incoming req see
system.mem_ctrl.wrQLenPdf::4                        1                       # What write queue length does an incoming req see
system.mem_ctrl.wrQLenPdf::5                        1                       # What write queue length does an incoming req see
system.mem_ctrl.wrQLenPdf::6                        1                       # What write queue length does an incoming req see
system.mem_ctrl.wrQLenPdf::7                        1                       # What write queue length does an incoming req see
system.mem_ctrl.wrQLenPdf::8                        1                       # What write queue length does an incoming req see
system.mem_ctrl.wrQLenPdf::9                        1                       # What write queue length does an incoming req see
system.mem_ctrl.wrQLenPdf::10                       1                       # What write queue length does an incoming req see
system.mem_ctrl.wrQLenPdf::11                       1                       # What write queue length does an incoming req see
system.mem_ctrl.wrQLenPdf::12                       1                       # What write queue length does an incoming req see
system.mem_ctrl.wrQLenPdf::13                       1                       # What write queue length does an incoming req see
system.mem_ctrl.wrQLenPdf::14                       1                       # What write queue length does an incoming req see
system.mem_ctrl.wrQLenPdf::15                     561                       # What write queue length does an incoming req see
system.mem_ctrl.wrQLenPdf::16                    2396                       # What write queue length does an incoming req see
system.mem_ctrl.wrQLenPdf::17                    2473                       # What write queue length does an incoming req see
system.mem_ctrl.wrQLenPdf::18                    2480                       # What write queue length does an incoming req see
system.mem_ctrl.wrQLenPdf::19                    2483                       # What write queue length does an incoming req see
system.mem_ctrl.wrQLenPdf::20                    2484                       # What write queue length does an incoming req see
system.mem_ctrl.wrQLenPdf::21                    2483                       # What write queue length does an incoming req see
system.mem_ctrl.wrQLenPdf::22                    2483                       # What write queue length does an incoming req see
system.mem_ctrl.wrQLenPdf::23                    2483                       # What write queue length does an incoming req see
system.mem_ctrl.wrQLenPdf::24                    2483                       # What write queue length does an incoming req see
system.mem_ctrl.wrQLenPdf::25                    2483                       # What write queue length does an incoming req see
system.mem_ctrl.wrQLenPdf::26                    2483                       # What write queue length does an incoming req see
system.mem_ctrl.wrQLenPdf::27                    2483                       # What write queue length does an incoming req see
system.mem_ctrl.wrQLenPdf::28                    2484                       # What write queue length does an incoming req see
system.mem_ctrl.wrQLenPdf::29                    2483                       # What write queue length does an incoming req see
system.mem_ctrl.wrQLenPdf::30                    2485                       # What write queue length does an incoming req see
system.mem_ctrl.wrQLenPdf::31                    2483                       # What write queue length does an incoming req see
system.mem_ctrl.wrQLenPdf::32                    2487                       # What write queue length does an incoming req see
system.mem_ctrl.wrQLenPdf::33                       2                       # What write queue length does an incoming req see
system.mem_ctrl.wrQLenPdf::34                       0                       # What write queue length does an incoming req see
system.mem_ctrl.wrQLenPdf::35                       0                       # What write queue length does an incoming req see
system.mem_ctrl.wrQLenPdf::36                       0                       # What write queue length does an incoming req see
system.mem_ctrl.wrQLenPdf::37                       0                       # What write queue length does an incoming req see
system.mem_ctrl.wrQLenPdf::38                       0                       # What write queue length does an incoming req see
system.mem_ctrl.wrQLenPdf::39                       0                       # What write queue length does an incoming req see
system.mem_ctrl.wrQLenPdf::40                       0                       # What write queue length does an incoming req see
system.mem_ctrl.wrQLenPdf::41                       0                       # What write queue length does an incoming req see
system.mem_ctrl.wrQLenPdf::42                       0                       # What write queue length does an incoming req see
system.mem_ctrl.wrQLenPdf::43                       0                       # What write queue length does an incoming req see
system.mem_ctrl.wrQLenPdf::44                       0                       # What write queue length does an incoming req see
system.mem_ctrl.wrQLenPdf::45                       0                       # What write queue length does an incoming req see
system.mem_ctrl.wrQLenPdf::46                       0                       # What write queue length does an incoming req see
system.mem_ctrl.wrQLenPdf::47                       0                       # What write queue length does an incoming req see
system.mem_ctrl.wrQLenPdf::48                       0                       # What write queue length does an incoming req see
system.mem_ctrl.wrQLenPdf::49                       0                       # What write queue length does an incoming req see
system.mem_ctrl.wrQLenPdf::50                       0                       # What write queue length does an incoming req see
system.mem_ctrl.wrQLenPdf::51                       0                       # What write queue length does an incoming req see
system.mem_ctrl.wrQLenPdf::52                       0                       # What write queue length does an incoming req see
system.mem_ctrl.wrQLenPdf::53                       0                       # What write queue length does an incoming req see
system.mem_ctrl.wrQLenPdf::54                       0                       # What write queue length does an incoming req see
system.mem_ctrl.wrQLenPdf::55                       0                       # What write queue length does an incoming req see
system.mem_ctrl.wrQLenPdf::56                       0                       # What write queue length does an incoming req see
system.mem_ctrl.wrQLenPdf::57                       0                       # What write queue length does an incoming req see
system.mem_ctrl.wrQLenPdf::58                       0                       # What write queue length does an incoming req see
system.mem_ctrl.wrQLenPdf::59                       0                       # What write queue length does an incoming req see
system.mem_ctrl.wrQLenPdf::60                       0                       # What write queue length does an incoming req see
system.mem_ctrl.wrQLenPdf::61                       0                       # What write queue length does an incoming req see
system.mem_ctrl.wrQLenPdf::62                       0                       # What write queue length does an incoming req see
system.mem_ctrl.wrQLenPdf::63                       0                       # What write queue length does an incoming req see
system.mem_ctrl.bytesPerActivate::samples        12621                       # Bytes accessed per row activation
system.mem_ctrl.bytesPerActivate::mean     601.014817                       # Bytes accessed per row activation
system.mem_ctrl.bytesPerActivate::gmean    364.390025                       # Bytes accessed per row activation
system.mem_ctrl.bytesPerActivate::stdev    427.059012                       # Bytes accessed per row activation
system.mem_ctrl.bytesPerActivate::0-127          3231     25.60%     25.60% # Bytes accessed per row activation
system.mem_ctrl.bytesPerActivate::128-255         1136      9.00%     34.60% # Bytes accessed per row activation
system.mem_ctrl.bytesPerActivate::256-383          422      3.34%     37.94% # Bytes accessed per row activation
system.mem_ctrl.bytesPerActivate::384-511          768      6.09%     44.03% # Bytes accessed per row activation
system.mem_ctrl.bytesPerActivate::512-639          355      2.81%     46.84% # Bytes accessed per row activation
system.mem_ctrl.bytesPerActivate::640-767          394      3.12%     49.96% # Bytes accessed per row activation
system.mem_ctrl.bytesPerActivate::768-895          370      2.93%     52.90% # Bytes accessed per row activation
system.mem_ctrl.bytesPerActivate::896-1023          405      3.21%     56.10% # Bytes accessed per row activation
system.mem_ctrl.bytesPerActivate::1024-1151         5540     43.90%    100.00% # Bytes accessed per row activation
system.mem_ctrl.bytesPerActivate::total         12621                       # Bytes accessed per row activation
system.mem_ctrl.rdPerTurnAround::samples         2482                       # Reads before turning the bus around for writes
system.mem_ctrl.rdPerTurnAround::mean       30.572522                       # Reads before turning the bus around for writes
system.mem_ctrl.rdPerTurnAround::gmean      17.293576                       # Reads before turning the bus around for writes
system.mem_ctrl.rdPerTurnAround::stdev     656.980686                       # Reads before turning the bus around for writes
system.mem_ctrl.rdPerTurnAround::0-1023          2481     99.96%     99.96% # Reads before turning the bus around for writes
system.mem_ctrl.rdPerTurnAround::31744-32767            1      0.04%    100.00% # Reads before turning the bus around for writes
system.mem_ctrl.rdPerTurnAround::total           2482                       # Reads before turning the bus around for writes
system.mem_ctrl.wrPerTurnAround::samples         2482                       # Writes before turning the bus around for reads
system.mem_ctrl.wrPerTurnAround::mean       17.190572                       # Writes before turning the bus around for reads
system.mem_ctrl.wrPerTurnAround::gmean      17.184102                       # Writes before turning the bus around for reads
system.mem_ctrl.wrPerTurnAround::stdev       0.473761                       # Writes before turning the bus around for reads
system.mem_ctrl.wrPerTurnAround::16                87      3.51%      3.51% # Writes before turning the bus around for reads
system.mem_ctrl.wrPerTurnAround::17              1835     73.93%     77.44% # Writes before turning the bus around for reads
system.mem_ctrl.wrPerTurnAround::18               560     22.56%    100.00% # Writes before turning the bus around for reads
system.mem_ctrl.wrPerTurnAround::total           2482                       # Writes before turning the bus around for reads
system.mem_ctrl.masterReadBytes::.cpu.inst        39104                       # Per-master bytes read from memory
system.mem_ctrl.masterReadBytes::.cpu.data      4818112                       # Per-master bytes read from memory
system.mem_ctrl.masterWriteBytes::.writebacks      2730688                       # Per-master bytes write to memory
system.mem_ctrl.masterReadRate::.cpu.inst 3487800.947032858152                       # Per-master bytes read from memory rate (Bytes/sec)
system.mem_ctrl.masterReadRate::.cpu.data 429741601.792920887470                       # Per-master bytes read from memory rate (Bytes/sec)
system.mem_ctrl.masterWriteRate::.writebacks 243558106.394518762827                       # Per-master bytes write to memory rate (Bytes/sec)
system.mem_ctrl.masterReadAccesses::.cpu.inst          611                       # Per-master read serviced memory accesses
system.mem_ctrl.masterReadAccesses::.cpu.data        75283                       # Per-master read serviced memory accesses
system.mem_ctrl.masterWriteAccesses::.writebacks        42697                       # Per-master write serviced memory accesses
system.mem_ctrl.masterReadTotalLat::.cpu.inst     24094500                       # Per-master read total memory access latency
system.mem_ctrl.masterReadTotalLat::.cpu.data   2552158250                       # Per-master read total memory access latency
system.mem_ctrl.masterWriteTotalLat::.writebacks 157310002000                       # Per-master write total memory access latency
system.mem_ctrl.masterReadAvgLat::.cpu.inst     39434.53                       # Per-master read average memory access latency
system.mem_ctrl.masterReadAvgLat::.cpu.data     33900.86                       # Per-master read average memory access latency
system.mem_ctrl.masterWriteAvgLat::.writebacks   3684333.84                       # Per-master write average memory access latency
system.mem_ctrl.totQLat                    1153240250                       # Total ticks spent queuing
system.mem_ctrl.totMemAccLat               2576252750                       # Total ticks spent from burst creation until serviced by the DRAM
system.mem_ctrl.totBusLat                   379470000                       # Total ticks spent in databus transfers
system.mem_ctrl.avgQLat                      15195.41                       # Average queueing delay per DRAM burst
system.mem_ctrl.avgBusLat                     5000.00                       # Average bus latency per DRAM burst
system.mem_ctrl.avgMemAccLat                 33945.41                       # Average memory access latency per DRAM burst
system.mem_ctrl.avgRdBW                        433.23                       # Average DRAM read bandwidth in MiByte/s
system.mem_ctrl.avgWrBW                        243.56                       # Average achieved write bandwidth in MiByte/s
system.mem_ctrl.avgRdBWSys                     433.23                       # Average system read bandwidth in MiByte/s
system.mem_ctrl.avgWrBWSys                     243.73                       # Average system write bandwidth in MiByte/s
system.mem_ctrl.peakBW                       12800.00                       # Theoretical peak bandwidth in MiByte/s
system.mem_ctrl.busUtil                          5.29                       # Data bus utilization in percentage
system.mem_ctrl.busUtilRead                      3.38                       # Data bus utilization in percentage for reads
system.mem_ctrl.busUtilWrite                     1.90                       # Data bus utilization in percentage for writes
system.mem_ctrl.avgRdQLen                        1.00                       # Average read queue length when enqueuing
system.mem_ctrl.avgWrQLen                       14.74                       # Average write queue length when enqueuing
system.mem_ctrl.readRowHits                     68257                       # Number of row buffer hits during reads
system.mem_ctrl.writeRowHits                    37673                       # Number of row buffer hits during writes
system.mem_ctrl.readRowHitRate                  89.94                       # Row buffer hit rate for reads
system.mem_ctrl.writeRowHitRate                 88.23                       # Row buffer hit rate for writes
system.mem_ctrl.avgGap                       94540.17                       # Average gap between requests
system.mem_ctrl.pageHitRate                     89.32                       # Row buffer hit rate, read and write combined
system.mem_ctrl_0.actEnergy                  44796360                       # Energy for activate commands per rank (pJ)
system.mem_ctrl_0.preEnergy                  23794650                       # Energy for precharge commands per rank (pJ)
system.mem_ctrl_0.readEnergy                271705560                       # Energy for read commands per rank (pJ)
system.mem_ctrl_0.writeEnergy               112026420                       # Energy for write commands per rank (pJ)
system.mem_ctrl_0.refreshEnergy          482492400.000000                       # Energy for refresh commands per rank (pJ)
system.mem_ctrl_0.actBackEnergy             677673570                       # Energy for active background per rank (pJ)
system.mem_ctrl_0.preBackEnergy              37026240                       # Energy for precharge background per rank (pJ)
system.mem_ctrl_0.actPowerDownEnergy       1844244120                       # Energy for active power-down per rank (pJ)
system.mem_ctrl_0.prePowerDownEnergy        192432480                       # Energy for precharge power-down per rank (pJ)
system.mem_ctrl_0.selfRefreshEnergy        1243805520                       # Energy for self refresh per rank (pJ)
system.mem_ctrl_0.totalEnergy              4930600140                       # Total energy per rank (pJ)
system.mem_ctrl_0.averagePower             439.774750                       # Core power per rank (mW)
system.mem_ctrl_0.totalIdleTime            9627730750                       # Total Idle time Per DRAM Rank
system.mem_ctrl_0.memoryStateTime::IDLE      23178500                       # Time in different power states
system.mem_ctrl_0.memoryStateTime::REF      204100000                       # Time in different power states
system.mem_ctrl_0.memoryStateTime::SREF    5082245250                       # Time in different power states
system.mem_ctrl_0.memoryStateTime::PRE_PDN    501145250                       # Time in different power states
system.mem_ctrl_0.memoryStateTime::ACT     1356591000                       # Time in different power states
system.mem_ctrl_0.memoryStateTime::ACT_PDN   4044389000                       # Time in different power states
system.mem_ctrl_1.actEnergy                  45388980                       # Energy for activate commands per rank (pJ)
system.mem_ctrl_1.preEnergy                  24102045                       # Energy for precharge commands per rank (pJ)
system.mem_ctrl_1.readEnergy                270177600                       # Energy for read commands per rank (pJ)
system.mem_ctrl_1.writeEnergy               110695320                       # Energy for write commands per rank (pJ)
system.mem_ctrl_1.refreshEnergy          474502080.000000                       # Energy for refresh commands per rank (pJ)
system.mem_ctrl_1.actBackEnergy             659576640                       # Energy for active background per rank (pJ)
system.mem_ctrl_1.preBackEnergy              36929280                       # Energy for precharge background per rank (pJ)
system.mem_ctrl_1.actPowerDownEnergy       1826992500                       # Energy for active power-down per rank (pJ)
system.mem_ctrl_1.prePowerDownEnergy        182182080                       # Energy for precharge power-down per rank (pJ)
system.mem_ctrl_1.selfRefreshEnergy        1267220400                       # Energy for self refresh per rank (pJ)
system.mem_ctrl_1.totalEnergy              4898047815                       # Total energy per rank (pJ)
system.mem_ctrl_1.averagePower             436.871313                       # Core power per rank (mW)
system.mem_ctrl_1.totalIdleTime            9668215250                       # Total Idle time Per DRAM Rank
system.mem_ctrl_1.memoryStateTime::IDLE      22475250                       # Time in different power states
system.mem_ctrl_1.memoryStateTime::REF      200720000                       # Time in different power states
system.mem_ctrl_1.memoryStateTime::SREF    5187420250                       # Time in different power states
system.mem_ctrl_1.memoryStateTime::PRE_PDN    474438500                       # Time in different power states
system.mem_ctrl_1.memoryStateTime::ACT     1320054750                       # Time in different power states
system.mem_ctrl_1.memoryStateTime::ACT_PDN   4006540250                       # Time in different power states
system.pwrStateResidencyTicks::UNDEFINED  11211649000                       # Cumulative time (in ticks) in various power states
system.cpu.branchPred.lookups                 1204510                       # Number of BP lookups
system.cpu.branchPred.condPredicted           1204510                       # Number of conditional branches predicted
system.cpu.branchPred.condIncorrect               950                       # Number of conditional branches incorrect
system.cpu.branchPred.BTBLookups              1204091                       # Number of BTB lookups
system.cpu.branchPred.BTBHits                       0                       # Number of BTB hits
system.cpu.branchPred.BTBCorrect                    0                       # Number of correct BTB predictions (this stat may not work properly.
system.cpu.branchPred.BTBHitPct              0.000000                       # BTB Hit Percentage
system.cpu.branchPred.usedRAS                     326                       # Number of times the RAS was used to get a target.
system.cpu.branchPred.RASInCorrect                153                       # Number of incorrect RAS predictions.
system.cpu.branchPred.indirectLookups         1204091                       # Number of indirect predictor lookups.
system.cpu.branchPred.indirectHits            1200653                       # Number of indirect target hits.
system.cpu.branchPred.indirectMisses             3438                       # Number of indirect misses.
system.cpu.branchPredindirectMispredicted          741                       # Number of mispredicted indirect branches.
system.cpu.dtb.walker.pwrStateResidencyTicks::UNDEFINED  11211649000                       # Cumulative time (in ticks) in various power states
system.cpu.dtb.rdAccesses                     6003140                       # TLB accesses on read requests
system.cpu.dtb.wrAccesses                     2402153                       # TLB accesses on write requests
system.cpu.dtb.rdMisses                            88                       # TLB misses on read requests
system.cpu.dtb.wrMisses                          1195                       # TLB misses on write requests
system.cpu.apic_clk_domain.clock                 8000                       # Clock period in ticks
system.cpu.interrupts.pwrStateResidencyTicks::UNDEFINED  11211649000                       # Cumulative time (in ticks) in various power states
system.cpu.itb.walker.pwrStateResidencyTicks::UNDEFINED  11211649000                       # Cumulative time (in ticks) in various power states
system.cpu.itb.rdAccesses                           0                       # TLB accesses on read requests
system.cpu.itb.wrAccesses                     2403228                       # TLB accesses on write requests
system.cpu.itb.rdMisses                             0                       # TLB misses on read requests
system.cpu.itb.wrMisses                           158                       # TLB misses on write requests
system.cpu.workload.numSyscalls                    13                       # Number of system calls
system.cpu.pwrStateResidencyTicks::ON     11211649000                       # Cumulative time (in ticks) in various power states
system.cpu.numCycles                         22423299                       # number of cpu cycles simulated
system.cpu.numWorkItemsStarted                      0                       # number of work items this cpu started
system.cpu.numWorkItemsCompleted                    0                       # number of work items this cpu completed
system.cpu.fetch.icacheStallCycles              43777                       # Number of cycles fetch is stalled on an Icache miss
system.cpu.fetch.Insts                       12021667                       # Number of instructions fetch has processed
system.cpu.fetch.Branches                     1204510                       # Number of branches that fetch encountered
system.cpu.fetch.predictedBranches            1200979                       # Number of branches that fetch has predicted taken
system.cpu.fetch.Cycles                      22342840                       # Number of cycles fetch has run and was not squashing or blocked
system.cpu.fetch.SquashCycles                    2158                       # Number of cycles fetch has spent squashing
system.cpu.fetch.TlbCycles                         70                       # Number of cycles fetch has spent waiting for tlb
system.cpu.fetch.MiscStallCycles                   86                       # Number of cycles fetch has spent waiting on interrupts, or bad addresses, or out of MSHRs
system.cpu.fetch.PendingTrapStallCycles           979                       # Number of stall cycles due to pending traps
system.cpu.fetch.PendingQuiesceStallCycles           20                       # Number of stall cycles due to pending quiesce instructions
system.cpu.fetch.CacheLines                   2403117                       # Number of cache lines fetched
system.cpu.fetch.IcacheSquashes                   489                       # Number of outstanding Icache misses that were squashed
system.cpu.fetch.ItlbSquashes                       1                       # Number of outstanding ITLB misses that were squashed
system.cpu.fetch.rateDist::samples           22388851                       # Number of instructions fetched each cycle (Total)
system.cpu.fetch.rateDist::mean              0.913048                       # Number of instructions fetched each cycle (Total)
system.cpu.fetch.rateDist::stdev             0.967469                       # Number of instructions fetched each cycle (Total)
system.cpu.fetch.rateDist::underflows               0      0.00%      0.00% # Number of instructions fetched each cycle (Total)
system.cpu.fetch.rateDist::0                 11535963     51.53%     51.53% # Number of instructions fetched each cycle (Total)
system.cpu.fetch.rateDist::1                  1263679      5.64%     57.17% # Number of instructions fetched each cycle (Total)
system.cpu.fetch.rateDist::2                  9589209     42.83%    100.00% # Number of instructions fetched each cycle (Total)
system.cpu.fetch.rateDist::overflows                0      0.00%    100.00% # Number of instructions fetched each cycle (Total)
system.cpu.fetch.rateDist::min_value                0                       # Number of instructions fetched each cycle (Total)
system.cpu.fetch.rateDist::max_value                2                       # Number of instructions fetched each cycle (Total)
system.cpu.fetch.rateDist::total             22388851                       # Number of instructions fetched each cycle (Total)
system.cpu.fetch.branchRate                  0.053717                       # Number of branch fetches per cycle
system.cpu.fetch.rate                        0.536124                       # Number of inst fetches per cycle
system.cpu.decode.IdleCycles                   943221                       # Number of cycles decode is idle
system.cpu.decode.BlockedCycles              11224469                       # Number of cycles decode is blocked
system.cpu.decode.RunCycles                   8988479                       # Number of cycles decode is running
system.cpu.decode.UnblockCycles               1231603                       # Number of cycles decode is unblocking
system.cpu.decode.SquashCycles                   1079                       # Number of cycles decode is squashing
system.cpu.decode.DecodedInsts               20437245                       # Number of instructions handled by decode
system.cpu.decode.SquashedInsts                  1761                       # Number of squashed instructions handled by decode
system.cpu.rename.SquashCycles                   1079                       # Number of cycles rename is squashing
system.cpu.rename.IdleCycles                  1607352                       # Number of cycles rename is idle
system.cpu.rename.BlockCycles                   36198                       # Number of cycles rename is blocking
system.cpu.rename.serializeStallCycles           1306                       # count of cycles rename stalled for serializing inst
system.cpu.rename.RunCycles                   9555912                       # Number of cycles rename is running
system.cpu.rename.UnblockCycles              11187004                       # Number of cycles rename is unblocking
system.cpu.rename.RenamedInsts               20435110                       # Number of instructions processed by rename
system.cpu.rename.SquashedInsts                   916                       # Number of squashed instructions processed by rename
system.cpu.rename.ROBFullEvents                    30                       # Number of times rename has blocked due to ROB full
system.cpu.rename.IQFullEvents                 256293                       # Number of times rename has blocked due to IQ full
system.cpu.rename.LQFullEvents                      7                       # Number of times rename has blocked due to LQ full
system.cpu.rename.SQFullEvents               10268113                       # Number of times rename has blocked due to SQ full
system.cpu.rename.FullRegisterEvents               12                       # Number of times there has been no free registers
system.cpu.rename.RenamedOperands            24038470                       # Number of destination operands rename has renamed
system.cpu.rename.RenameLookups              50486642                       # Number of register rename lookups that rename has made
system.cpu.rename.int_rename_lookups         33649111                       # Number of integer rename lookups
system.cpu.rename.fp_rename_lookups              4018                       # Number of floating rename lookups
system.cpu.rename.CommittedMaps              24022692                       # Number of HB maps that are committed
system.cpu.rename.UndoneMaps                    15778                       # Number of HB maps that are undone due to squashing
system.cpu.rename.serializingInsts                 26                       # count of serializing insts renamed
system.cpu.rename.tempSerializingInsts             23                       # count of temporary serializing insts renamed
system.cpu.rename.skidInsts                   1687982                       # count of insts added to the skid buffer
system.cpu.memDep0.insertedLoads              6003906                       # Number of loads inserted to the mem dependence unit.
system.cpu.memDep0.insertedStores             2402744                       # Number of stores inserted to the mem dependence unit.
system.cpu.memDep0.conflictingLoads           4218630                       # Number of conflicting loads.
system.cpu.memDep0.conflictingStores           856177                       # Number of conflicting stores.
system.cpu.iq.iqInstsAdded                   20432795                       # Number of instructions added to the IQ (excludes non-spec)
system.cpu.iq.iqNonSpecInstsAdded                  92                       # Number of non-speculative instructions added to the IQ
system.cpu.iq.iqInstsIssued                  20429276                       # Number of instructions issued
system.cpu.iq.iqSquashedInstsIssued               458                       # Number of squashed instructions issued
system.cpu.iq.iqSquashedInstsExamined           12187                       # Number of squashed instructions iterated over during squash; mainly for profiling
system.cpu.iq.iqSquashedOperandsExamined        15500                       # Number of squashed operands that are examined and possibly removed from graph
system.cpu.iq.iqSquashedNonSpecRemoved             61                       # Number of squashed non-spec instructions that were removed
system.cpu.iq.issued_per_cycle::samples      22388851                       # Number of insts issued each cycle
system.cpu.iq.issued_per_cycle::mean         0.912475                       # Number of insts issued each cycle
system.cpu.iq.issued_per_cycle::stdev        0.864902                       # Number of insts issued each cycle
system.cpu.iq.issued_per_cycle::underflows            0      0.00%      0.00% # Number of insts issued each cycle
system.cpu.iq.issued_per_cycle::0             9439601     42.16%     42.16% # Number of insts issued each cycle
system.cpu.iq.issued_per_cycle::1             5469224     24.43%     66.59% # Number of insts issued each cycle
system.cpu.iq.issued_per_cycle::2             7480026     33.41%    100.00% # Number of insts issued each cycle
system.cpu.iq.issued_per_cycle::overflows            0      0.00%    100.00% # Number of insts issued each cycle
system.cpu.iq.issued_per_cycle::min_value            0                       # Number of insts issued each cycle
system.cpu.iq.issued_per_cycle::max_value            2                       # Number of insts issued each cycle
system.cpu.iq.issued_per_cycle::total        22388851                       # Number of insts issued each cycle
system.cpu.iq.fu_full::No_OpClass                   0      0.00%      0.00% # attempts to use FU when none available
system.cpu.iq.fu_full::IntAlu                       0      0.00%      0.00% # attempts to use FU when none available
system.cpu.iq.fu_full::IntMult                      0      0.00%      0.00% # attempts to use FU when none available
system.cpu.iq.fu_full::IntDiv                       0      0.00%      0.00% # attempts to use FU when none available
system.cpu.iq.fu_full::FloatAdd                     0      0.00%      0.00% # attempts to use FU when none available
system.cpu.iq.fu_full::FloatCmp                     0      0.00%      0.00% # attempts to use FU when none available
system.cpu.iq.fu_full::FloatCvt                     0      0.00%      0.00% # attempts to use FU when none available
system.cpu.iq.fu_full::FloatMult                    0      0.00%      0.00% # attempts to use FU when none available
system.cpu.iq.fu_full::FloatMultAcc                 0      0.00%      0.00% # attempts to use FU when none available
system.cpu.iq.fu_full::FloatDiv                     0      0.00%      0.00% # attempts to use FU when none available
system.cpu.iq.fu_full::FloatMisc                    0      0.00%      0.00% # attempts to use FU when none available
system.cpu.iq.fu_full::FloatSqrt                    0      0.00%      0.00% # attempts to use FU when none available
system.cpu.iq.fu_full::SimdAdd                    248      0.01%      0.01% # attempts to use FU when none available
system.cpu.iq.fu_full::SimdAddAcc                   0      0.00%      0.01% # attempts to use FU when none available
system.cpu.iq.fu_full::SimdAlu                     53      0.00%      0.01% # attempts to use FU when none available
system.cpu.iq.fu_full::SimdCmp                      0      0.00%      0.01% # attempts to use FU when none available
system.cpu.iq.fu_full::SimdCvt                     26      0.00%      0.01% # attempts to use FU when none available
system.cpu.iq.fu_full::SimdMisc                   123      0.00%      0.01% # attempts to use FU when none available
system.cpu.iq.fu_full::SimdMult                     0      0.00%      0.01% # attempts to use FU when none available
system.cpu.iq.fu_full::SimdMultAcc                  0      0.00%      0.01% # attempts to use FU when none available
system.cpu.iq.fu_full::SimdShift                  124      0.00%      0.02% # attempts to use FU when none available
system.cpu.iq.fu_full::SimdShiftAcc                 0      0.00%      0.02% # attempts to use FU when none available
system.cpu.iq.fu_full::SimdSqrt                     0      0.00%      0.02% # attempts to use FU when none available
system.cpu.iq.fu_full::SimdFloatAdd                 0      0.00%      0.02% # attempts to use FU when none available
system.cpu.iq.fu_full::SimdFloatAlu                 0      0.00%      0.02% # attempts to use FU when none available
system.cpu.iq.fu_full::SimdFloatCmp                 0      0.00%      0.02% # attempts to use FU when none available
system.cpu.iq.fu_full::SimdFloatCvt                 0      0.00%      0.02% # attempts to use FU when none available
system.cpu.iq.fu_full::SimdFloatDiv                 0      0.00%      0.02% # attempts to use FU when none available
system.cpu.iq.fu_full::SimdFloatMisc                0      0.00%      0.02% # attempts to use FU when none available
system.cpu.iq.fu_full::SimdFloatMult                0      0.00%      0.02% # attempts to use FU when none available
system.cpu.iq.fu_full::SimdFloatMultAcc             0      0.00%      0.02% # attempts to use FU when none available
system.cpu.iq.fu_full::SimdFloatSqrt                0      0.00%      0.02% # attempts to use FU when none available
system.cpu.iq.fu_full::SimdAes                      0      0.00%      0.02% # attempts to use FU when none available
system.cpu.iq.fu_full::SimdAesMix                   0      0.00%      0.02% # attempts to use FU when none available
system.cpu.iq.fu_full::SimdSha1Hash                 0      0.00%      0.02% # attempts to use FU when none available
system.cpu.iq.fu_full::SimdSha1Hash2                0      0.00%      0.02% # attempts to use FU when none available
system.cpu.iq.fu_full::SimdSha256Hash               0      0.00%      0.02% # attempts to use FU when none available
system.cpu.iq.fu_full::SimdSha256Hash2              0      0.00%      0.02% # attempts to use FU when none available
system.cpu.iq.fu_full::SimdShaSigma2                0      0.00%      0.02% # attempts to use FU when none available
system.cpu.iq.fu_full::SimdShaSigma3                0      0.00%      0.02% # attempts to use FU when none available
system.cpu.iq.fu_full::MemRead                3800175     99.98%    100.00% # attempts to use FU when none available
system.cpu.iq.fu_full::MemWrite                   175      0.00%    100.00% # attempts to use FU when none available
system.cpu.iq.fu_full::FloatMemRead                 0      0.00%    100.00% # attempts to use FU when none available
system.cpu.iq.fu_full::FloatMemWrite                0      0.00%    100.00% # attempts to use FU when none available
system.cpu.iq.fu_full::IprAccess                    0      0.00%    100.00% # attempts to use FU when none available
system.cpu.iq.fu_full::InstPrefetch                 0      0.00%    100.00% # attempts to use FU when none available
system.cpu.iq.FU_type_0::No_OpClass               350      0.00%      0.00% # Type of FU issued
system.cpu.iq.FU_type_0::IntAlu              12022137     58.85%     58.85% # Type of FU issued
system.cpu.iq.FU_type_0::IntMult                   11      0.00%     58.85% # Type of FU issued
system.cpu.iq.FU_type_0::IntDiv                    31      0.00%     58.85% # Type of FU issued
system.cpu.iq.FU_type_0::FloatAdd                  13      0.00%     58.85% # Type of FU issued
system.cpu.iq.FU_type_0::FloatCmp                   0      0.00%     58.85% # Type of FU issued
system.cpu.iq.FU_type_0::FloatCvt                   0      0.00%     58.85% # Type of FU issued
system.cpu.iq.FU_type_0::FloatMult                  0      0.00%     58.85% # Type of FU issued
system.cpu.iq.FU_type_0::FloatMultAcc               0      0.00%     58.85% # Type of FU issued
system.cpu.iq.FU_type_0::FloatDiv                   0      0.00%     58.85% # Type of FU issued
system.cpu.iq.FU_type_0::FloatMisc                  0      0.00%     58.85% # Type of FU issued
system.cpu.iq.FU_type_0::FloatSqrt                  0      0.00%     58.85% # Type of FU issued
system.cpu.iq.FU_type_0::SimdAdd                  375      0.00%     58.85% # Type of FU issued
system.cpu.iq.FU_type_0::SimdAddAcc                 0      0.00%     58.85% # Type of FU issued
system.cpu.iq.FU_type_0::SimdAlu                   86      0.00%     58.85% # Type of FU issued
system.cpu.iq.FU_type_0::SimdCmp                    0      0.00%     58.85% # Type of FU issued
system.cpu.iq.FU_type_0::SimdCvt                  128      0.00%     58.85% # Type of FU issued
system.cpu.iq.FU_type_0::SimdMisc                 239      0.00%     58.85% # Type of FU issued
system.cpu.iq.FU_type_0::SimdMult                   0      0.00%     58.85% # Type of FU issued
system.cpu.iq.FU_type_0::SimdMultAcc                0      0.00%     58.85% # Type of FU issued
system.cpu.iq.FU_type_0::SimdShift                186      0.00%     58.85% # Type of FU issued
system.cpu.iq.FU_type_0::SimdShiftAcc               0      0.00%     58.85% # Type of FU issued
system.cpu.iq.FU_type_0::SimdSqrt                   0      0.00%     58.85% # Type of FU issued
system.cpu.iq.FU_type_0::SimdFloatAdd               0      0.00%     58.85% # Type of FU issued
system.cpu.iq.FU_type_0::SimdFloatAlu               0      0.00%     58.85% # Type of FU issued
system.cpu.iq.FU_type_0::SimdFloatCmp               0      0.00%     58.85% # Type of FU issued
system.cpu.iq.FU_type_0::SimdFloatCvt               0      0.00%     58.85% # Type of FU issued
system.cpu.iq.FU_type_0::SimdFloatDiv               0      0.00%     58.85% # Type of FU issued
system.cpu.iq.FU_type_0::SimdFloatMisc              0      0.00%     58.85% # Type of FU issued
system.cpu.iq.FU_type_0::SimdFloatMult              0      0.00%     58.85% # Type of FU issued
system.cpu.iq.FU_type_0::SimdFloatMultAcc            0      0.00%     58.85% # Type of FU issued
system.cpu.iq.FU_type_0::SimdFloatSqrt              0      0.00%     58.85% # Type of FU issued
system.cpu.iq.FU_type_0::SimdAes                    0      0.00%     58.85% # Type of FU issued
system.cpu.iq.FU_type_0::SimdAesMix                 0      0.00%     58.85% # Type of FU issued
system.cpu.iq.FU_type_0::SimdSha1Hash               0      0.00%     58.85% # Type of FU issued
system.cpu.iq.FU_type_0::SimdSha1Hash2              0      0.00%     58.85% # Type of FU issued
system.cpu.iq.FU_type_0::SimdSha256Hash             0      0.00%     58.85% # Type of FU issued
system.cpu.iq.FU_type_0::SimdSha256Hash2            0      0.00%     58.85% # Type of FU issued
system.cpu.iq.FU_type_0::SimdShaSigma2              0      0.00%     58.85% # Type of FU issued
system.cpu.iq.FU_type_0::SimdShaSigma3              0      0.00%     58.85% # Type of FU issued
system.cpu.iq.FU_type_0::MemRead              6003338     29.39%     88.24% # Type of FU issued
system.cpu.iq.FU_type_0::MemWrite             2401853     11.76%    100.00% # Type of FU issued
system.cpu.iq.FU_type_0::FloatMemRead              87      0.00%    100.00% # Type of FU issued
system.cpu.iq.FU_type_0::FloatMemWrite            442      0.00%    100.00% # Type of FU issued
system.cpu.iq.FU_type_0::IprAccess                  0      0.00%    100.00% # Type of FU issued
system.cpu.iq.FU_type_0::InstPrefetch               0      0.00%    100.00% # Type of FU issued
system.cpu.iq.FU_type_0::total               20429276                       # Type of FU issued
system.cpu.iq.rate                           0.911074                       # Inst issue rate
system.cpu.iq.fu_busy_cnt                     3800924                       # FU busy when requested
system.cpu.iq.fu_busy_rate                   0.186053                       # FU busy rate (busy events/executed inst)
system.cpu.iq.int_inst_queue_reads           67044044                       # Number of integer instruction queue reads
system.cpu.iq.int_inst_queue_writes          20442941                       # Number of integer instruction queue writes
system.cpu.iq.int_inst_queue_wakeup_accesses     20424602                       # Number of integer instruction queue wakeup accesses
system.cpu.iq.fp_inst_queue_reads                4741                       # Number of floating instruction queue reads
system.cpu.iq.fp_inst_queue_writes               2185                       # Number of floating instruction queue writes
system.cpu.iq.fp_inst_queue_wakeup_accesses         2056                       # Number of floating instruction queue wakeup accesses
system.cpu.iq.vec_inst_queue_reads                  0                       # Number of vector instruction queue reads
system.cpu.iq.vec_inst_queue_writes                 0                       # Number of vector instruction queue writes
system.cpu.iq.vec_inst_queue_wakeup_accesses            0                       # Number of vector instruction queue wakeup accesses
system.cpu.iq.int_alu_accesses               24227194                       # Number of integer alu accesses
system.cpu.iq.fp_alu_accesses                    2656                       # Number of floating point alu accesses
system.cpu.iq.vec_alu_accesses                      0                       # Number of vector alu accesses
system.cpu.iew.lsq.thread0.forwLoads          4800130                       # Number of loads that had data forwarded from stores
system.cpu.iew.lsq.thread0.invAddrLoads             0                       # Number of loads ignored due to an invalid address
system.cpu.iew.lsq.thread0.squashedLoads         1614                       # Number of loads squashed
system.cpu.iew.lsq.thread0.ignoredResponses            9                       # Number of memory responses ignored because the instruction is squashed
system.cpu.iew.lsq.thread0.memOrderViolation           52                       # Number of memory ordering violations
system.cpu.iew.lsq.thread0.squashedStores          908                       # Number of stores squashed
system.cpu.iew.lsq.thread0.invAddrSwpfs             0                       # Number of software prefetches ignored due to an invalid address
system.cpu.iew.lsq.thread0.blockedLoads             0                       # Number of blocked loads due to partial load-store forwarding
system.cpu.iew.lsq.thread0.rescheduledLoads            1                       # Number of loads that were rescheduled
system.cpu.iew.lsq.thread0.cacheBlocked             0                       # Number of times an access to memory failed due to the cache being blocked
system.cpu.iew.iewIdleCycles                        0                       # Number of cycles IEW is idle
system.cpu.iew.iewSquashCycles                   1079                       # Number of cycles IEW is squashing
system.cpu.iew.iewBlockCycles                    1934                       # Number of cycles IEW is blocking
system.cpu.iew.iewUnblockCycles                  1320                       # Number of cycles IEW is unblocking
system.cpu.iew.iewDispatchedInsts            20432887                       # Number of instructions dispatched to IQ
system.cpu.iew.iewDispSquashedInsts               844                       # Number of squashed instructions skipped by dispatch
system.cpu.iew.iewDispLoadInsts               6003906                       # Number of dispatched load instructions
system.cpu.iew.iewDispStoreInsts              2402744                       # Number of dispatched store instructions
system.cpu.iew.iewDispNonSpecInsts                 43                       # Number of dispatched non-speculative instructions
system.cpu.iew.iewIQFullEvents                     16                       # Number of times the IQ has become full, causing a stall
system.cpu.iew.iewLSQFullEvents                  1285                       # Number of times the LSQ has become full, causing a stall
system.cpu.iew.memOrderViolationEvents             52                       # Number of memory order violations
system.cpu.iew.predictedTakenIncorrect            188                       # Number of branches that were predicted taken incorrectly
system.cpu.iew.predictedNotTakenIncorrect          966                       # Number of branches that were predicted not taken incorrectly
system.cpu.iew.branchMispredicts                 1154                       # Number of branch mispredicts detected at execute
system.cpu.iew.iewExecutedInsts              20427207                       # Number of executed instructions
system.cpu.iew.iewExecLoadInsts               6003134                       # Number of load instructions executed
system.cpu.iew.iewExecSquashedInsts              2069                       # Number of squashed instructions skipped in execute
system.cpu.iew.exec_swp                             0                       # number of swp insts executed
system.cpu.iew.exec_nop                             0                       # number of nop insts executed
system.cpu.iew.exec_refs                      8405287                       # number of memory reference insts executed
system.cpu.iew.exec_branches                  1202568                       # Number of branches executed
system.cpu.iew.exec_stores                    2402153                       # Number of stores executed
system.cpu.iew.exec_rate                     0.910981                       # Inst execution rate
system.cpu.iew.wb_sent                       20426931                       # cumulative count of insts sent to commit
system.cpu.iew.wb_count                      20426658                       # cumulative count of insts written-back
system.cpu.iew.wb_producers                  16487190                       # num instructions producing a value
system.cpu.iew.wb_consumers                  18746449                       # num instructions consuming a value
system.cpu.iew.wb_rate                       0.910957                       # insts written-back per cycle
system.cpu.iew.wb_fanout                     0.879483                       # average fanout of values written-back
system.cpu.commit.commitSquashedInsts           11004                       # The number of squashed insts skipped by commit
system.cpu.commit.commitNonSpecStalls              31                       # The number of times commit has been forced to stall to communicate backwards
system.cpu.commit.branchMispredicts              1029                       # The number of times a branch was mispredicted
system.cpu.commit.committed_per_cycle::samples     22387502                       # Number of insts commited each cycle
system.cpu.commit.committed_per_cycle::mean     0.912147                       # Number of insts commited each cycle
system.cpu.commit.committed_per_cycle::stdev     0.918780                       # Number of insts commited each cycle
system.cpu.commit.committed_per_cycle::underflows            0      0.00%      0.00% # Number of insts commited each cycle
system.cpu.commit.committed_per_cycle::0     10519066     46.99%     46.99% # Number of insts commited each cycle
system.cpu.commit.committed_per_cycle::1      3316173     14.81%     61.80% # Number of insts commited each cycle
system.cpu.commit.committed_per_cycle::2      8552263     38.20%    100.00% # Number of insts commited each cycle
system.cpu.commit.committed_per_cycle::overflows            0      0.00%    100.00% # Number of insts commited each cycle
system.cpu.commit.committed_per_cycle::min_value            0                       # Number of insts commited each cycle
system.cpu.commit.committed_per_cycle::max_value            2                       # Number of insts commited each cycle
system.cpu.commit.committed_per_cycle::total     22387502                       # Number of insts commited each cycle
system.cpu.commit.committedInsts             12010628                       # Number of instructions committed
system.cpu.commit.committedOps               20420699                       # Number of ops (including micro ops) committed
system.cpu.commit.swp_count                         0                       # Number of s/w prefetches committed
system.cpu.commit.refs                        8404128                       # Number of memory references committed
system.cpu.commit.loads                       6002292                       # Number of loads committed
system.cpu.commit.membars                          12                       # Number of memory barriers committed
system.cpu.commit.branches                    1202191                       # Number of branches committed
system.cpu.commit.vec_insts                         0                       # Number of committed Vector instructions.
system.cpu.commit.fp_insts                       2027                       # Number of committed floating point instructions.
system.cpu.commit.int_insts                  20419098                       # Number of committed integer instructions.
system.cpu.commit.function_calls                  190                       # Number of function calls committed.
system.cpu.commit.op_class_0::No_OpClass          108      0.00%      0.00% # Class of committed instruction
system.cpu.commit.op_class_0::IntAlu         12015404     58.84%     58.84% # Class of committed instruction
system.cpu.commit.op_class_0::IntMult              11      0.00%     58.84% # Class of committed instruction
system.cpu.commit.op_class_0::IntDiv               28      0.00%     58.84% # Class of committed instruction
system.cpu.commit.op_class_0::FloatAdd             12      0.00%     58.84% # Class of committed instruction
system.cpu.commit.op_class_0::FloatCmp              0      0.00%     58.84% # Class of committed instruction
system.cpu.commit.op_class_0::FloatCvt              0      0.00%     58.84% # Class of committed instruction
system.cpu.commit.op_class_0::FloatMult             0      0.00%     58.84% # Class of committed instruction
system.cpu.commit.op_class_0::FloatMultAcc            0      0.00%     58.84% # Class of committed instruction
system.cpu.commit.op_class_0::FloatDiv              0      0.00%     58.84% # Class of committed instruction
system.cpu.commit.op_class_0::FloatMisc             0      0.00%     58.84% # Class of committed instruction
system.cpu.commit.op_class_0::FloatSqrt             0      0.00%     58.84% # Class of committed instruction
system.cpu.commit.op_class_0::SimdAdd             374      0.00%     58.84% # Class of committed instruction
system.cpu.commit.op_class_0::SimdAddAcc            0      0.00%     58.84% # Class of committed instruction
system.cpu.commit.op_class_0::SimdAlu              82      0.00%     58.84% # Class of committed instruction
system.cpu.commit.op_class_0::SimdCmp               0      0.00%     58.84% # Class of committed instruction
system.cpu.commit.op_class_0::SimdCvt             128      0.00%     58.84% # Class of committed instruction
system.cpu.commit.op_class_0::SimdMisc            238      0.00%     58.84% # Class of committed instruction
system.cpu.commit.op_class_0::SimdMult              0      0.00%     58.84% # Class of committed instruction
system.cpu.commit.op_class_0::SimdMultAcc            0      0.00%     58.84% # Class of committed instruction
system.cpu.commit.op_class_0::SimdShift           186      0.00%     58.85% # Class of committed instruction
system.cpu.commit.op_class_0::SimdShiftAcc            0      0.00%     58.85% # Class of committed instruction
system.cpu.commit.op_class_0::SimdSqrt              0      0.00%     58.85% # Class of committed instruction
system.cpu.commit.op_class_0::SimdFloatAdd            0      0.00%     58.85% # Class of committed instruction
system.cpu.commit.op_class_0::SimdFloatAlu            0      0.00%     58.85% # Class of committed instruction
system.cpu.commit.op_class_0::SimdFloatCmp            0      0.00%     58.85% # Class of committed instruction
system.cpu.commit.op_class_0::SimdFloatCvt            0      0.00%     58.85% # Class of committed instruction
system.cpu.commit.op_class_0::SimdFloatDiv            0      0.00%     58.85% # Class of committed instruction
system.cpu.commit.op_class_0::SimdFloatMisc            0      0.00%     58.85% # Class of committed instruction
system.cpu.commit.op_class_0::SimdFloatMult            0      0.00%     58.85% # Class of committed instruction
system.cpu.commit.op_class_0::SimdFloatMultAcc            0      0.00%     58.85% # Class of committed instruction
system.cpu.commit.op_class_0::SimdFloatSqrt            0      0.00%     58.85% # Class of committed instruction
system.cpu.commit.op_class_0::SimdAes               0      0.00%     58.85% # Class of committed instruction
system.cpu.commit.op_class_0::SimdAesMix            0      0.00%     58.85% # Class of committed instruction
system.cpu.commit.op_class_0::SimdSha1Hash            0      0.00%     58.85% # Class of committed instruction
system.cpu.commit.op_class_0::SimdSha1Hash2            0      0.00%     58.85% # Class of committed instruction
system.cpu.commit.op_class_0::SimdSha256Hash            0      0.00%     58.85% # Class of committed instruction
system.cpu.commit.op_class_0::SimdSha256Hash2            0      0.00%     58.85% # Class of committed instruction
system.cpu.commit.op_class_0::SimdShaSigma2            0      0.00%     58.85% # Class of committed instruction
system.cpu.commit.op_class_0::SimdShaSigma3            0      0.00%     58.85% # Class of committed instruction
system.cpu.commit.op_class_0::MemRead         6002224     29.39%     88.24% # Class of committed instruction
system.cpu.commit.op_class_0::MemWrite        2401419     11.76%    100.00% # Class of committed instruction
system.cpu.commit.op_class_0::FloatMemRead           68      0.00%    100.00% # Class of committed instruction
system.cpu.commit.op_class_0::FloatMemWrite          417      0.00%    100.00% # Class of committed instruction
system.cpu.commit.op_class_0::IprAccess             0      0.00%    100.00% # Class of committed instruction
system.cpu.commit.op_class_0::InstPrefetch            0      0.00%    100.00% # Class of committed instruction
system.cpu.commit.op_class_0::total          20420699                       # Class of committed instruction
system.cpu.commit.bw_lim_events               8552263                       # number cycles where commit BW limit reached
system.cpu.rob.rob_reads                     34266942                       # The number of ROB reads
system.cpu.rob.rob_writes                    40864755                       # The number of ROB writes
system.cpu.timesIdled                             357                       # Number of times that the entire CPU went into an idle state and unscheduled itself
system.cpu.idleCycles                           34448                       # Total number of cycles that the CPU has spent unscheduled due to idling
system.cpu.committedInsts                    12010628                       # Number of Instructions Simulated
system.cpu.committedOps                      20420699                       # Number of Ops (including micro ops) Simulated
system.cpu.cpi                               1.866955                       # CPI: Cycles Per Instruction
system.cpu.cpi_total                         1.866955                       # CPI: Total CPI of All Threads
system.cpu.ipc                               0.535632                       # IPC: Instructions Per Cycle
system.cpu.ipc_total                         0.535632                       # IPC: Total IPC of All Threads
system.cpu.int_regfile_reads                 33635934                       # number of integer regfile reads
system.cpu.int_regfile_writes                16820335                       # number of integer regfile writes
system.cpu.fp_regfile_reads                      3944                       # number of floating regfile reads
system.cpu.fp_regfile_writes                     1560                       # number of floating regfile writes
system.cpu.cc_regfile_reads                   6012408                       # number of cc regfile reads
system.cpu.cc_regfile_writes                  7207369                       # number of cc regfile writes
system.cpu.misc_regfile_reads                10811575                       # number of misc regfile reads
system.cpu.dcache.tags.pwrStateResidencyTicks::UNDEFINED  11211649000                       # Cumulative time (in ticks) in various power states
system.cpu.dcache.tags.tagsinuse           255.519148                       # Cycle average of tags in use
system.cpu.dcache.tags.total_refs             3604646                       # Total number of references to valid blocks.
system.cpu.dcache.tags.sampled_refs             75293                       # Sample count of references to valid blocks.
system.cpu.dcache.tags.avg_refs             47.874915                       # Average number of references to valid blocks.
system.cpu.dcache.tags.warmup_cycle            170000                       # Cycle when the warmup percentage was hit.
system.cpu.dcache.tags.occ_blocks::.cpu.data   255.519148                       # Average occupied blocks per requestor
system.cpu.dcache.tags.occ_percent::.cpu.data     0.998122                       # Average percentage of cache occupancy
system.cpu.dcache.tags.occ_percent::total     0.998122                       # Average percentage of cache occupancy
system.cpu.dcache.tags.occ_task_id_blocks::1024          256                       # Occupied blocks per task id
system.cpu.dcache.tags.age_task_id_blocks_1024::0           26                       # Occupied blocks per task id
system.cpu.dcache.tags.age_task_id_blocks_1024::1          229                       # Occupied blocks per task id
system.cpu.dcache.tags.age_task_id_blocks_1024::4            1                       # Occupied blocks per task id
system.cpu.dcache.tags.occ_task_id_percent::1024            1                       # Percentage of cache occupancy per task id
system.cpu.dcache.tags.tag_accesses          28913597                       # Number of tag accesses
system.cpu.dcache.tags.data_accesses         28913597                       # Number of data accesses
system.cpu.dcache.pwrStateResidencyTicks::UNDEFINED  11211649000                       # Cumulative time (in ticks) in various power states
system.cpu.dcache.ReadReq_hits::.cpu.data      1202651                       # number of ReadReq hits
system.cpu.dcache.ReadReq_hits::total         1202651                       # number of ReadReq hits
system.cpu.dcache.WriteReq_hits::.cpu.data      2326702                       # number of WriteReq hits
system.cpu.dcache.WriteReq_hits::total        2326702                       # number of WriteReq hits
system.cpu.dcache.demand_hits::.cpu.data      3529353                       # number of demand (read+write) hits
system.cpu.dcache.demand_hits::total          3529353                       # number of demand (read+write) hits
system.cpu.dcache.overall_hits::.cpu.data      3529353                       # number of overall hits
system.cpu.dcache.overall_hits::total         3529353                       # number of overall hits
system.cpu.dcache.ReadReq_misses::.cpu.data          301                       # number of ReadReq misses
system.cpu.dcache.ReadReq_misses::total           301                       # number of ReadReq misses
system.cpu.dcache.WriteReq_misses::.cpu.data        75134                       # number of WriteReq misses
system.cpu.dcache.WriteReq_misses::total        75134                       # number of WriteReq misses
system.cpu.dcache.demand_misses::.cpu.data        75435                       # number of demand (read+write) misses
system.cpu.dcache.demand_misses::total          75435                       # number of demand (read+write) misses
[...]
system.l3cache.tags.occ_blocks::.cpu.data 25825.631904                       # Average occupied blocks per requestor
system.l3cache.tags.occ_percent::.cpu.inst     0.004520                       # Average percentage of cache occupancy
system.l3cache.tags.occ_percent::.cpu.data     0.788136                       # Average percentage of cache occupancy
system.l3cache.tags.occ_percent::total       0.792656                       # Average percentage of cache occupancy
system.l3cache.tags.occ_task_id_blocks::1024        32768                       # Occupied blocks per task id
system.l3cache.tags.age_task_id_blocks_1024::0          148                       # Occupied blocks per task id
system.l3cache.tags.age_task_id_blocks_1024::1          704                       # Occupied blocks per task id
system.l3cache.tags.age_task_id_blocks_1024::2         5937                       # Occupied blocks per task id
system.l3cache.tags.age_task_id_blocks_1024::3        25979                       # Occupied blocks per task id
system.l3cache.tags.occ_task_id_percent::1024            1                       # Percentage of cache occupancy per task id
system.l3cache.tags.tag_accesses              2432198                       # Number of tag accesses
system.l3cache.tags.data_accesses             2432198                       # Number of data accesses
system.l3cache.pwrStateResidencyTicks::UNDEFINED  11211649000                       # Cumulative time (in ticks) in various power states
system.l3cache.WritebackDirty_hits::.writebacks        71372                       # number of WritebackDirty hits
system.l3cache.WritebackDirty_hits::total        71372                       # number of WritebackDirty hits
system.l3cache.ReadSharedReq_hits::.cpu.data            3                       # number of ReadSharedReq hits
system.l3cache.ReadSharedReq_hits::total            3                       # number of ReadSharedReq hits
system.l3cache.demand_hits::.cpu.data               3                       # number of demand (read+write) hits
system.l3cache.demand_hits::total                   3                       # number of demand (read+write) hits
system.l3cache.overall_hits::.cpu.data              3                       # number of overall hits
system.l3cache.overall_hits::total                  3                       # number of overall hits
system.l3cache.ReadExReq_misses::.cpu.data        75130                       # number of ReadExReq misses
system.l3cache.ReadExReq_misses::total          75130                       # number of ReadExReq misses
system.l3cache.ReadSharedReq_misses::.cpu.inst          611                       # number of ReadSharedReq misses
system.l3cache.ReadSharedReq_misses::.cpu.data          153                       # number of ReadSharedReq misses
system.l3cache.ReadSharedReq_misses::total          764                       # number of ReadSharedReq misses
system.l3cache.demand_misses::.cpu.inst           611                       # number of demand (read+write) misses
system.l3cache.demand_misses::.cpu.data         75283                       # number of demand (read+write) misses
system.l3cache.demand_misses::total             75894                       # number of demand (read+write) misses
system.l3cache.overall_misses::.cpu.inst          611                       # number of overall misses
system.l3cache.overall_misses::.cpu.data        75283                       # number of overall misses
system.l3cache.overall_misses::total            75894                       # number of overall misses
system.l3cache.ReadExReq_miss_latency::.cpu.data   5342701500                       # number of ReadExReq miss cycles
system.l3cache.ReadExReq_miss_latency::total   5342701500                       # number of ReadExReq miss cycles
system.l3cache.ReadSharedReq_miss_latency::.cpu.inst     46836500                       # number of ReadSharedReq miss cycles
system.l3cache.ReadSharedReq_miss_latency::.cpu.data     12604500                       # number of ReadSharedReq miss cycles
system.l3cache.ReadSharedReq_miss_latency::total     59441000                       # number of ReadSharedReq miss cycles
system.l3cache.demand_miss_latency::.cpu.inst     46836500                       # number of demand (read+write) miss cycles
system.l3cache.demand_miss_latency::.cpu.data   5355306000                       # number of demand (read+write) miss cycles
system.l3cache.demand_miss_latency::total   5402142500                       # number of demand (read+write) miss cycles
system.l3cache.overall_miss_latency::.cpu.inst     46836500                       # number of overall miss cycles
system.l3cache.overall_miss_latency::.cpu.data   5355306000                       # number of overall miss cycles
system.l3cache.overall_miss_latency::total   5402142500                       # number of overall miss cycles
system.l3cache.WritebackDirty_accesses::.writebacks        71372                       # number of WritebackDirty accesses(hits+misses)
system.l3cache.WritebackDirty_accesses::total        71372                       # number of WritebackDirty accesses(hits+misses)
system.l3cache.ReadExReq_accesses::.cpu.data        75130                       # number of ReadExReq accesses(hits+misses)
system.l3cache.ReadExReq_accesses::total        75130                       # number of ReadExReq accesses(hits+misses)
system.l3cache.ReadSharedReq_accesses::.cpu.inst          611                       # number of ReadSharedReq accesses(hits+misses)
system.l3cache.ReadSharedReq_accesses::.cpu.data          156                       # number of ReadSharedReq accesses(hits+misses)
system.l3cache.ReadSharedReq_accesses::total          767                       # number of ReadSharedReq accesses(hits+misses)
system.l3cache.demand_accesses::.cpu.inst          611                       # number of demand (read+write) accesses
system.l3cache.demand_accesses::.cpu.data        75286                       # number of demand (read+write) accesses
system.l3cache.demand_accesses::total           75897                       # number of demand (read+write) accesses
system.l3cache.overall_accesses::.cpu.inst          611                       # number of overall (read+write) accesses
system.l3cache.overall_accesses::.cpu.data        75286                       # number of overall (read+write) accesses
system.l3cache.overall_accesses::total          75897                       # number of overall (read+write) accesses
system.l3cache.ReadExReq_miss_rate::.cpu.data            1                       # miss rate for ReadExReq accesses
system.l3cache.ReadExReq_miss_rate::total            1                       # miss rate for ReadExReq accesses
system.l3cache.ReadSharedReq_miss_rate::.cpu.inst            1                       # miss rate for ReadSharedReq accesses
system.l3cache.ReadSharedReq_miss_rate::.cpu.data     0.980769                       # miss rate for ReadSharedReq accesses
system.l3cache.ReadSharedReq_miss_rate::total     0.996089                       # miss rate for ReadSharedReq accesses
system.l3cache.demand_miss_rate::.cpu.inst            1                       # miss rate for demand accesses
system.l3cache.demand_miss_rate::.cpu.data     0.999960                       # miss rate for demand accesses
system.l3cache.demand_miss_rate::total       0.999960                       # miss rate for demand accesses
system.l3cache.overall_miss_rate::.cpu.inst            1                       # miss rate for overall accesses
system.l3cache.overall_miss_rate::.cpu.data     0.999960                       # miss rate for overall accesses
system.l3cache.overall_miss_rate::total      0.999960                       # miss rate for overall accesses
system.l3cache.ReadExReq_avg_miss_latency::.cpu.data 71112.757886                       # average ReadExReq miss latency
system.l3cache.ReadExReq_avg_miss_latency::total 71112.757886                       # average ReadExReq miss latency
system.l3cache.ReadSharedReq_avg_miss_latency::.cpu.inst 76655.482815                       # average ReadSharedReq miss latency
system.l3cache.ReadSharedReq_avg_miss_latency::.cpu.data 82382.352941                       # average ReadSharedReq miss latency
system.l3cache.ReadSharedReq_avg_miss_latency::total 77802.356021                       # average ReadSharedReq miss latency
system.l3cache.demand_avg_miss_latency::.cpu.inst 76655.482815                       # average overall miss latency
system.l3cache.demand_avg_miss_latency::.cpu.data 71135.661438                       # average overall miss latency
system.l3cache.demand_avg_miss_latency::total 71180.099876                       # average overall miss latency
system.l3cache.overall_avg_miss_latency::.cpu.inst 76655.482815                       # average overall miss latency
system.l3cache.overall_avg_miss_latency::.cpu.data 71135.661438                       # average overall miss latency
system.l3cache.overall_avg_miss_latency::total 71180.099876                       # average overall miss latency
system.l3cache.blocked_cycles::no_mshrs             0                       # number of cycles access was blocked
system.l3cache.blocked_cycles::no_targets            0                       # number of cycles access was blocked
system.l3cache.blocked::no_mshrs                    0                       # number of cycles access was blocked
system.l3cache.blocked::no_targets                  0                       # number of cycles access was blocked
system.l3cache.avg_blocked_cycles::no_mshrs          nan                       # average number of cycles each access was blocked
system.l3cache.avg_blocked_cycles::no_targets          nan                       # average number of cycles each access was blocked
system.l3cache.writebacks::.writebacks          42697                       # number of writebacks
system.l3cache.writebacks::total                42697                       # number of writebacks
system.l3cache.ReadExReq_mshr_misses::.cpu.data        75130                       # number of ReadExReq MSHR misses
system.l3cache.ReadExReq_mshr_misses::total        75130                       # number of ReadExReq MSHR misses
system.l3cache.ReadSharedReq_mshr_misses::.cpu.inst          611                       # number of ReadSharedReq MSHR misses
system.l3cache.ReadSharedReq_mshr_misses::.cpu.data          153                       # number of ReadSharedReq MSHR misses
system.l3cache.ReadSharedReq_mshr_misses::total          764                       # number of ReadSharedReq MSHR misses
system.l3cache.demand_mshr_misses::.cpu.inst          611                       # number of demand (read+write) MSHR misses
system.l3cache.demand_mshr_misses::.cpu.data        75283                       # number of demand (read+write) MSHR misses
system.l3cache.demand_mshr_misses::total        75894                       # number of demand (read+write) MSHR misses
system.l3cache.overall_mshr_misses::.cpu.inst          611                       # number of overall MSHR misses
system.l3cache.overall_mshr_misses::.cpu.data        75283                       # number of overall MSHR misses
system.l3cache.overall_mshr_misses::total        75894                       # number of overall MSHR misses
system.l3cache.ReadExReq_mshr_miss_latency::.cpu.data   5192441500                       # number of ReadExReq MSHR miss cycles
system.l3cache.ReadExReq_mshr_miss_latency::total   5192441500                       # number of ReadExReq MSHR miss cycles
system.l3cache.ReadSharedReq_mshr_miss_latency::.cpu.inst     45614500                       # number of ReadSharedReq MSHR miss cycles
system.l3cache.ReadSharedReq_mshr_miss_latency::.cpu.data     12298500                       # number of ReadSharedReq MSHR miss cycles
system.l3cache.ReadSharedReq_mshr_miss_latency::total     57913000                       # number of ReadSharedReq MSHR miss cycles
system.l3cache.demand_mshr_miss_latency::.cpu.inst     45614500                       # number of demand (read+write) MSHR miss cycles
system.l3cache.demand_mshr_miss_latency::.cpu.data   5204740000                       # number of demand (read+write) MSHR miss cycles
system.l3cache.demand_mshr_miss_latency::total   5250354500                       # number of demand (read+write) MSHR miss cycles
system.l3cache.overall_mshr_miss_latency::.cpu.inst     45614500                       # number of overall MSHR miss cycles
system.l3cache.overall_mshr_miss_latency::.cpu.data   5204740000                       # number of overall MSHR miss cycles
system.l3cache.overall_mshr_miss_latency::total   5250354500                       # number of overall MSHR miss cycles
system.l3cache.ReadExReq_mshr_miss_rate::.cpu.data            1                       # mshr miss rate for ReadExReq accesses
system.l3cache.ReadExReq_mshr_miss_rate::total            1                       # mshr miss rate for ReadExReq accesses
system.l3cache.ReadSharedReq_mshr_miss_rate::.cpu.inst            1                       # mshr miss rate for ReadSharedReq accesses
system.l3cache.ReadSharedReq_mshr_miss_rate::.cpu.data     0.980769                       # mshr miss rate for ReadSharedReq accesses
system.l3cache.ReadSharedReq_mshr_miss_rate::total     0.996089                       # mshr miss rate for ReadSharedReq accesses
system.l3cache.demand_mshr_miss_rate::.cpu.inst            1                       # mshr miss rate for demand accesses
system.l3cache.demand_mshr_miss_rate::.cpu.data     0.999960                       # mshr miss rate for demand accesses
system.l3cache.demand_mshr_miss_rate::total     0.999960                       # mshr miss rate for demand accesses
system.l3cache.overall_mshr_miss_rate::.cpu.inst            1                       # mshr miss rate for overall accesses
system.l3cache.overall_mshr_miss_rate::.cpu.data     0.999960                       # mshr miss rate for overall accesses
system.l3cache.overall_mshr_miss_rate::total     0.999960                       # mshr miss rate for overall accesses
system.l3cache.ReadExReq_avg_mshr_miss_latency::.cpu.data 69112.757886                       # average ReadExReq mshr miss latency
system.l3cache.ReadExReq_avg_mshr_miss_latency::total 69112.757886                       # average ReadExReq mshr miss latency
system.l3cache.ReadSharedReq_avg_mshr_miss_latency::.cpu.inst 74655.482815                       # average ReadSharedReq mshr miss latency
system.l3cache.ReadSharedReq_avg_mshr_miss_latency::.cpu.data 80382.352941                       # average ReadSharedReq mshr miss latency
system.l3cache.ReadSharedReq_avg_mshr_miss_latency::total 75802.356021                       # average ReadSharedReq mshr miss latency
system.l3cache.demand_avg_mshr_miss_latency::.cpu.inst 74655.482815                       # average overall mshr miss latency
system.l3cache.demand_avg_mshr_miss_latency::.cpu.data 69135.661438                       # average overall mshr miss latency
system.l3cache.demand_avg_mshr_miss_latency::total 69180.099876                       # average overall mshr miss latency
system.l3cache.overall_avg_mshr_miss_latency::.cpu.inst 74655.482815                       # average overall mshr miss latency
system.l3cache.overall_avg_mshr_miss_latency::.cpu.data 69135.661438                       # average overall mshr miss latency
system.l3cache.overall_avg_mshr_miss_latency::total 69180.099876                       # average overall mshr miss latency
system.l3cache.replacements                     43126                       # number of replacements
system.membus.snoop_filter.tot_requests        118955                       # Total number of requests made to the snoop filter.
system.membus.snoop_filter.hit_single_requests        43099                       # Number of requests hitting in the snoop filter with a single holder of the requested data.
system.membus.snoop_filter.hit_multi_requests            0                       # Number of requests hitting in the snoop filter with multiple (>1) holders of the requested data.
system.membus.snoop_filter.tot_snoops               0                       # Total number of snoops made to the snoop filter.
system.membus.snoop_filter.hit_single_snoops            0                       # Number of snoops hitting in the snoop filter with a single holder of the requested data.
system.membus.snoop_filter.hit_multi_snoops            0                       # Number of snoops hitting in the snoop filter with multiple (>1) holders of the requested data.
system.membus.pwrStateResidencyTicks::UNDEFINED  11211649000                       # Cumulative time (in ticks) in various power states
system.membus.trans_dist::ReadResp                764                       # Transaction distribution
system.membus.trans_dist::WritebackDirty        42697                       # Transaction distribution
system.membus.trans_dist::CleanEvict              364                       # Transaction distribution
system.membus.trans_dist::ReadExReq             75130                       # Transaction distribution
system.membus.trans_dist::ReadExResp            75130                       # Transaction distribution
system.membus.trans_dist::ReadSharedReq           764                       # Transaction distribution
system.membus.pkt_count_system.l3cache.mem_side::system.mem_ctrl.port       194849                       # Packet count per connected master and slave (bytes)
system.membus.pkt_count_system.l3cache.mem_side::total       194849                       # Packet count per connected master and slave (bytes)
system.membus.pkt_count::total                 194849                       # Packet count per connected master and slave (bytes)
system.membus.pkt_size_system.l3cache.mem_side::system.mem_ctrl.port      7589824                       # Cumulative packet size per connected master and slave (bytes)
system.membus.pkt_size_system.l3cache.mem_side::total      7589824                       # Cumulative packet size per connected master and slave (bytes)
system.membus.pkt_size::total                 7589824                       # Cumulative packet size per connected master and slave (bytes)
system.membus.snoops                                0                       # Total snoops (count)
system.membus.snoopTraffic                          0                       # Total snoop traffic (bytes)
system.membus.snoop_fanout::samples             75894                       # Request fanout histogram
system.membus.snoop_fanout::mean                    0                       # Request fanout histogram
system.membus.snoop_fanout::stdev                   0                       # Request fanout histogram
system.membus.snoop_fanout::underflows              0      0.00%      0.00% # Request fanout histogram
system.membus.snoop_fanout::0                   75894    100.00%    100.00% # Request fanout histogram
system.membus.snoop_fanout::1                       0      0.00%    100.00% # Request fanout histogram
system.membus.snoop_fanout::overflows               0      0.00%    100.00% # Request fanout histogram
system.membus.snoop_fanout::min_value               0                       # Request fanout histogram
system.membus.snoop_fanout::max_value               0                       # Request fanout histogram
system.membus.snoop_fanout::total               75894                       # Request fanout histogram
system.membus.reqLayer0.occupancy           144871500                       # Layer occupancy (ticks)
system.membus.reqLayer0.utilization               1.3                       # Layer utilization (%)
system.membus.respLayer0.occupancy          207544750                       # Layer occupancy (ticks)
system.membus.respLayer0.utilization              1.9                       # Layer utilization (%)

---------- End Simulation Statistics   ----------