
---------- Begin Simulation Statistics ----------
sim_seconds                                  0.011209                       # Number of seconds simulated
sim_ticks                                 11209206000                       # Number of ticks simulated
final_tick                                11209206000                       # Number of ticks from beginning of simulation (restored from checkpoints and never reset)
sim_freq                                 1000000000000                       # Frequency of simulated ticks
host_inst_rate                                 399849                       # Simulator instruction rate (inst/s)
host_op_rate                                   679832                       # Simulator op (including micro ops) rate (op/s)
host_tick_rate                              373168975                       # Simulator tick rate (ticks/s)
host_mem_usage                               10372936                       # Number of bytes of host memory used
host_seconds                                    30.04                       # Real time elapsed on the host
sim_insts                                    12010628                       # Number of instructions simulated
sim_ops                                      20420699                       # Number of ops (including micro ops) simulated
system.clk_domain.voltage_domain.voltage            1                       # Voltage in Volts
system.clk_domain.clock                           500                       # Clock period in ticks
system.mem_ctrl.pwrStateResidencyTicks::UNDEFINED  11209206000                       # Cumulative time (in ticks) in various power states
system.mem_ctrl.bytes_read::.cpu.inst           37632                       # Number of bytes read from this memory
system.mem_ctrl.bytes_read::.cpu.data         4818368                       # Number of bytes read from this memory
system.mem_ctrl.bytes_read::total             4856000                       # Number of bytes read from this memory
system.mem_ctrl.bytes_inst_read::.cpu.inst        37632                       # Number of instructions bytes read from this memory
system.mem_ctrl.bytes_inst_read::total          37632                       # Number of instructions bytes read from this memory
system.mem_ctrl.bytes_written::.writebacks      2731264                       # Number of bytes written to this memory
system.mem_ctrl.bytes_written::total          2731264                       # Number of bytes written to this memory
system.mem_ctrl.num_reads::.cpu.inst              588                       # Number of read requests responded to by this memory
system.mem_ctrl.num_reads::.cpu.data            75287                       # Number of read requests responded to by this memory
system.mem_ctrl.num_reads::total                75875                       # Number of read requests responded to by this memory
system.mem_ctrl.num_writes::.writebacks         42676                       # Number of write requests responded to by this memory
system.mem_ctrl.num_writes::total               42676                       # Number of write requests responded to by this memory
system.mem_ctrl.bw_read::.cpu.inst            3357240                       # Total read bandwidth from this memory (bytes/s)
system.mem_ctrl.bw_read::.cpu.data          429858101                       # Total read bandwidth from this memory (bytes/s)
system.mem_ctrl.bw_read::total              433215341                       # Total read bandwidth from this memory (bytes/s)
system.mem_ctrl.bw_inst_read::.cpu.inst       3357240                       # Instruction read bandwidth from this memory (bytes/s)
system.mem_ctrl.bw_inst_read::total           3357240                       # Instruction read bandwidth from this memory (bytes/s)
system.mem_ctrl.bw_write::.writebacks       243662575                       # Write bandwidth from this memory (bytes/s)
system.mem_ctrl.bw_write::total             243662575                       # Write bandwidth from this memory (bytes/s)
system.mem_ctrl.bw_total::.writebacks       243662575                       # Total bandwidth to/from this memory (bytes/s)
system.mem_ctrl.bw_total::.cpu.inst           3357240                       # Total bandwidth to/from this memory (bytes/s)
system.mem_ctrl.bw_total::.cpu.data         429858101                       # Total bandwidth to/from this memory (bytes/s)
system.mem_ctrl.bw_total::total             676877916                       # Total bandwidth to/from this memory (bytes/s)
system.mem_ctrl.avgPriority_.writebacks::samples     42676.00                       # Average QoS priority value for accepted requests
system.mem_ctrl.avgPriority_.cpu.inst::samples       588.00                       # Average QoS priority value for accepted requests
system.mem_ctrl.avgPriority_.cpu.data::samples     75287.00                       # Average QoS priority value for accepted requests
system.mem_ctrl.priorityMinLatency       0.000000018750                       # per QoS priority minimum request to response latency (s)
system.mem_ctrl.priorityMaxLatency       0.000071003500                       # per QoS priority maximum request to response latency (s)
system.mem_ctrl.numReadWriteTurnArounds          2481                       # Number of turnarounds from READ to WRITE
system.mem_ctrl.numWriteReadTurnArounds          2481                       # Number of turnarounds from WRITE to READ
system.mem_ctrl.numStayReadState               193721                       # Number of times bus staying in READ state
system.mem_ctrl.numStayWriteState               40304                       # Number of times bus staying in WRITE state
system.mem_ctrl.readReqs                        75875                       # Number of read requests accepted
system.mem_ctrl.writeReqs                       42676                       # Number of write requests accepted
system.mem_ctrl.readBursts                      75875                       # Number of DRAM read bursts, including those serviced by the write queue
system.mem_ctrl.writeBursts                     42676                       # Number of DRAM write bursts, including those merged in the write queue
system.mem_ctrl.bytesReadDRAM                 4856000                       # Total number of bytes read from DRAM
system.mem_ctrl.bytesReadWrQ                        0                       # Total number of bytes read from write queue
system.mem_ctrl.bytesWritten                  2729664                       # Total number of bytes written to DRAM
system.mem_ctrl.bytesReadSys                  4856000                       # Total read bytes from the system interface side
system.mem_ctrl.bytesWrittenSys               2731264                       # Total written bytes from the system interface side
system.mem_ctrl.servicedByWrQ                       0                       # Number of DRAM read bursts serviced by the write queue
system.mem_ctrl.mergedWrBursts                      0                       # Number of DRAM write bursts merged with an existing one
system.mem_ctrl.neitherReadNorWriteReqs             0                       # Number of requests that are neither read nor write
system.mem_ctrl.perBankRdBursts::0               4769                       # Per bank write bursts
system.mem_ctrl.perBankRdBursts::1               4703                       # Per bank write bursts
system.mem_ctrl.perBankRdBursts::2               4749                       # Per bank write bursts
system.mem_ctrl.perBankRdBursts::3               4746                       # Per bank write bursts
system.mem_ctrl.perBankRdBursts::4               4749                       # Per bank write bursts
system.mem_ctrl.perBankRdBursts::5               4775                       # Per bank write bursts
system.mem_ctrl.perBankRdBursts::6               4778                       # Per bank write bursts
system.mem_ctrl.perBankRdBursts::7               4784                       # Per bank write bursts
system.mem_ctrl.perBankRdBursts::8               4739                       # Per bank write bursts
system.mem_ctrl.perBankRdBursts::9               4767                       # Per bank write bursts
system.mem_ctrl.perBankRdBursts::10              4785                       # Per bank write bursts
system.mem_ctrl.perBankRdBursts::11              4684                       # Per bank write bursts
system.mem_ctrl.perBankRdBursts::12              4718                       # Per bank write bursts
system.mem_ctrl.perBankRdBursts::13              4684                       # Per bank write bursts
system.mem_ctrl.perBankRdBursts::14              4747                       # Per bank write bursts
system.mem_ctrl.perBankRdBursts::15              4698                       # Per bank write bursts
system.mem_ctrl.perBankWrBursts::0               2653                       # Per bank write bursts
system.mem_ctrl.perBankWrBursts::1               2628                       # Per bank write bursts
system.mem_ctrl.perBankWrBursts::2               2691                       # Per bank write bursts
system.mem_ctrl.perBankWrBursts::3               2691                       # Per bank write bursts
system.mem_ctrl.perBankWrBursts::4               2693                       # Per bank write bursts
system.mem_ctrl.perBankWrBursts::5               2692                       # Per bank write bursts
system.mem_ctrl.perBankWrBursts::6               2692                       # Per bank write bursts
system.mem_ctrl.perBankWrBursts::7               2719                       # Per bank write bursts
system.mem_ctrl.perBankWrBursts::8               2688                       # Per bank write bursts
system.mem_ctrl.perBankWrBursts::9               2707                       # Per bank write bursts
system.mem_ctrl.perBankWrBursts::10              2708                       # Per bank write bursts
system.mem_ctrl.perBankWrBursts::11              2630                       # Per bank write bursts
system.mem_ctrl.perBankWrBursts::12              2624                       # Per bank write bursts
system.mem_ctrl.perBankWrBursts::13              2600                       # Per bank write bursts
system.mem_ctrl.perBankWrBursts::14              2619                       # Per bank write bursts
system.mem_ctrl.perBankWrBursts::15              2616                       # Per bank write bursts
system.mem_ctrl.numRdRetry                          0                       # Number of times read queue was full causing retry
system.mem_ctrl.numWrRetry                          0                       # Number of times write queue was full causing retry
system.mem_ctrl.totGap                    11209170000                       # Total gap between requests
system.mem_ctrl.readPktSize::0                      0                       # Read request sizes (log2)
system.mem_ctrl.readPktSize::1                      0                       # Read request sizes (log2)
system.mem_ctrl.readPktSize::2                      0                       # Read request sizes (log2)
system.mem_ctrl.readPktSize::3                      0                       # Read request sizes (log2)
system.mem_ctrl.readPktSize::4                      0                       # Read request sizes (log2)
system.mem_ctrl.readPktSize::5                      0                       # Read request sizes (log2)
system.mem_ctrl.readPktSize::6                  75875                       # Read request sizes (log2)
system.mem_ctrl.writePktSize::0                     0                       # Write request sizes (log2)
system.mem_ctrl.writePktSize::1                     0                       # Write request sizes (log2)
system.mem_ctrl.writePktSize::2                     0                       # Write request sizes (log2)
system.mem_ctrl.writePktSize::3                     0                       # Write request sizes (log2)
system.mem_ctrl.writePktSize::4                     0                       # Write request sizes (log2)
system.mem_ctrl.writePktSize::5                     0                       # Write request sizes (log2)
system.mem_ctrl.writePktSize::6                 42676                       # Write request sizes (log2)
system.mem_ctrl.rdQLenPdf::0                    75533                       # What read queue length does an incoming req see
system.mem_ctrl.rdQLenPdf::1                      250                       # What read queue length does an incoming req see
system.mem_ctrl.rdQLenPdf::2                       71                       # What read queue length does an incoming req see
system.mem_ctrl.rdQLenPdf::3                       18                       # What read queue length does an incoming req see
system.mem_ctrl.rdQLenPdf::4                        3                       # What read queue length does an incoming req see
system.mem_ctrl.rdQLenPdf::5                        0                       # What read queue length does an incoming req see
system.mem_ctrl.rdQLenPdf::6                        0                       # What read queue length does an incoming req see
system.mem_ctrl.rdQLenPdf::7                        0                       # What read queue length does an incoming req see
system.mem_ctrl.rdQLenPdf::8                        0                       # What read queue length does an incoming req see
system.mem_ctrl.rdQLenPdf::9                        0                       # What read queue length does an incoming req see
system.mem_ctrl.rdQLenPdf::10                       0                       # What read queue length does an incoming req see
system.mem_ctrl.rdQLenPdf::11                       0                       # What read queue length does an incoming req see
system.mem_ctrl.rdQLenPdf::12                       0                       # What read queue length does an incoming req see
system.mem_ctrl.rdQLenPdf::13                       0                       # What read queue length does an incoming req see
system.mem_ctrl.rdQLenPdf::14                       0                       # What read queue length does an incoming req see
system.mem_ctrl.rdQLenPdf::15                       0                       # What read queue length does an incoming req see
system.mem_ctrl.rdQLenPdf::16                       0                       # What read queue length does an incoming req see
system.mem_ctrl.rdQLenPdf::17                       0                       # What read queue length does an incoming req see
system.mem_ctrl.rdQLenPdf::18                       0                       # What read queue length does an incoming req see
system.mem_ctrl.rdQLenPdf::19                       0                       # What read queue length does an incoming req see
system.mem_ctrl.rdQLenPdf::20                       0                       # What read queue length does an incoming req see
system.mem_ctrl.rdQLenPdf::21                       0                       # What read queue length does an incoming req see
system.mem_ctrl.rdQLenPdf::22                       0                       # What read queue length does an incoming req see
system.mem_ctrl.rdQLenPdf::23                       0                       # What read queue length does an incoming req see
system.mem_ctrl.rdQLenPdf::24                       0                       # What read queue length does an incoming req see
system.mem_ctrl.rdQLenPdf::25                       0                       # What read queue length does an incoming req see
system.mem_ctrl.rdQLenPdf::26                       0                       # What read queue length does an incoming req see
system.mem_ctrl.rdQLenPdf::27                       0                       # What read queue length does an incoming req see
system.mem_ctrl.rdQLenPdf::28                       0                       # What read queue length does an incoming req see
system.mem_ctrl.rdQLenPdf::29                       0                       # What read queue length does an incoming req see
system.mem_ctrl.rdQLenPdf::30                       0                       # What read queue length does an incoming req see
system.mem_ctrl.rdQLenPdf::31                       0                       # What read queue length does an incoming req see
system.mem_ctrl.wrQLenPdf::0                        1                       # What write queue length does an incoming req see
system.mem_ctrl.wrQLenPdf::1                        1                       # What write queue length does an incoming req see
system.mem_ctrl.wrQLenPdf::2                        1                       # What write queue length does an incoming req see
system.mem_ctrl.wrQLenPdf::3                        1                       # What write queue length does an incoming req see
system.mem_ctrl.wrQLenPdf::4                        1                       # What write queue length does an incoming req see
system.mem_ctrl.wrQLenPdf::5                        1                       # What write queue length does an incoming req see
system.mem_ctrl.wrQLenPdf::6                        1                       # What write queue length does an incoming req see
system.mem_ctrl.wrQLenPdf::7                        1                       # What write queue length does an incoming req see
system.mem_ctrl.wrQLenPdf::8                        1                       # What write queue length does an incoming req see
system.mem_ctrl.wrQLenPdf::9                        1                       # What write queue length does an incoming req see
system.mem_ctrl.wrQLenPdf::10                       1                       # What write queue length does an incoming req see
system.mem_ctrl.wrQLenPdf::11                       1                       # What write queue length does an incoming req see
system.mem_ctrl.wrQLenPdf::12                       1                       # What write queue length does an incoming req see
system.mem_ctrl.wrQLenPdf::13                       1                       # What write queue length does an incoming req see
system.mem_ctrl.wrQLenPdf::14                       1                       # What write queue length does an incoming req see
system.mem_ctrl.wrQLenPdf::15                     561                       # What write queue length does an incoming req see
system.mem_ctrl.wrQLenPdf::16                    2396                       # What write queue length does an incoming req see
system.mem_ctrl.wrQLenPdf::17                    2473                       # What write queue length does an incoming req see
system.mem_ctrl.wrQLenPdf::18                    2478                       # What write queue length does an incoming req see
system.mem_ctrl.wrQLenPdf::19                    2479                       # What write queue length does an incoming req see
system.mem_ctrl.wrQLenPdf::20                    2482                       # What write queue length does an incoming req see
system.mem_ctrl.wrQLenPdf::21                    2482                       # What write queue length does an incoming req see
system.mem_ctrl.wrQLenPdf::22                    2482                       # What write queue length does an incoming req see
system.mem_ctrl.wrQLenPdf::23                    2482                       # What write queue length does an incoming req see
system.mem_ctrl.wrQLenPdf::24                    2482                       # What write queue length does an incoming req see
system.mem_ctrl.wrQLenPdf::25                    2483                       # What write queue length does an incoming req see
system.mem_ctrl.wrQLenPdf::26                    2481                       # What write queue length does an incoming req see
system.mem_ctrl.wrQLenPdf::27                    2481                       # What write queue length does an incoming req see
system.mem_ctrl.wrQLenPdf::28                    2482                       # What write queue length does an incoming req see
system.mem_ctrl.wrQLenPdf::29                    2484                       # What write queue length does an incoming req see
system.mem_ctrl.wrQLenPdf::30                    2481                       # What write queue length does an incoming req see
system.mem_ctrl.wrQLenPdf::31                    2482                       # What write queue length does an incoming req see
system.mem_ctrl.wrQLenPdf::32                    2487                       # What write queue length does an incoming req see
system.mem_ctrl.wrQLenPdf::33                       3                       # What write queue length does an incoming req see
system.mem_ctrl.wrQLenPdf::34                       0                       # What write queue length does an incoming req see
system.mem_ctrl.wrQLenPdf::35                       0                       # What write queue length does an incoming req see
system.mem_ctrl.wrQLenPdf::36                       0                       # What write queue length does an incoming req see
system.mem_ctrl.wrQLenPdf::37                       0                       # What write queue length does an incoming req see
system.mem_ctrl.wrQLenPdf::38                       0                       # What write queue length does an incoming req see
system.mem_ctrl.wrQLenPdf::39                       0                       # What write queue length does an incoming req see
system.mem_ctrl.wrQLenPdf::40                       0                       # What write queue length does an incoming req see
system.mem_ctrl.wrQLenPdf::41                       0                       # What write queue length does an incoming req see
system.mem_ctrl.wrQLenPdf::42                       0                       # What write queue length does an incoming req see
system.mem_ctrl.wrQLenPdf::43                       0                       # What write queue length does an incoming req see
system.mem_ctrl.wrQLenPdf::44                       0                       # What write queue length does an incoming req see
system.mem_ctrl.wrQLenPdf::45                       0                       # What write queue length does an incoming req see
system.mem_ctrl.wrQLenPdf::46                       0                       # What write queue length does an incoming req see
system.mem_ctrl.wrQLenPdf::47                       0                       # What write queue length does an incoming req see
system.mem_ctrl.wrQLenPdf::48                       0                       # What write queue length does an incoming req see
system.mem_ctrl.wrQLenPdf::49                       0                       # What write queue length does an incoming req see
system.mem_ctrl.wrQLenPdf::50                       0                       # What write queue length does an incoming req see
system.mem_ctrl.wrQLenPdf::51                       0                       # What write queue length does an incoming req see
system.mem_ctrl.wrQLenPdf::52                       0                       # What write queue length does an incoming req see
system.mem_ctrl.wrQLenPdf::53                       0                       # What write queue length does an incoming req see
system.mem_ctrl.wrQLenPdf::54                       0                       # What write queue length does an incoming req see
system.mem_ctrl.wrQLenPdf::55                       0                       # What write queue length does an incoming req see
system.mem_ctrl.wrQLenPdf::56                       0                       # What write queue length does an incoming req see
system.mem_ctrl.wrQLenPdf::57                       0                       # What write queue length does an incoming req see
system.mem_ctrl.wrQLenPdf::58                       0                       # What write queue length does an incoming req see
system.mem_ctrl.wrQLenPdf::59                       0                       # What write queue length does an incoming req see
system.mem_ctrl.wrQLenPdf::60                       0                       # What write queue length does an incoming req see
system.mem_ctrl.wrQLenPdf::61                       0                       # What write queue length does an incoming req see
system.mem_ctrl.wrQLenPdf::62                       0                       # What write queue length does an incoming req see
system.mem_ctrl.wrQLenPdf::63                       0                       # What write queue length does an incoming req see
system.mem_ctrl.bytesPerActivate::samples        12616                       # Bytes accessed per row activation
system.mem_ctrl.bytesPerActivate::mean     601.161699                       # Bytes accessed per row activation
system.mem_ctrl.bytesPerActivate::gmean    364.384681                       # Bytes accessed per row activation
system.mem_ctrl.bytesPerActivate::stdev    427.139480                       # Bytes accessed per row activation
system.mem_ctrl.bytesPerActivate::0-127          3237     25.66%     25.66% # Bytes accessed per row activation
system.mem_ctrl.bytesPerActivate::128-255         1128      8.94%     34.60% # Bytes accessed per row activation
system.mem_ctrl.bytesPerActivate::256-383          423      3.35%     37.95% # Bytes accessed per row activation
system.mem_ctrl.bytesPerActivate::384-511          768      6.09%     44.04% # Bytes accessed per row activation
system.mem_ctrl.bytesPerActivate::512-639          351      2.78%     46.82% # Bytes accessed per row activation
system.mem_ctrl.bytesPerActivate::640-767          393      3.12%     49.94% # Bytes accessed per row activation
system.mem_ctrl.bytesPerActivate::768-895          368      2.92%     52.85% # Bytes accessed per row activation
system.mem_ctrl.bytesPerActivate::896-1023          407      3.23%     56.08% # Bytes accessed per row activation
system.mem_ctrl.bytesPerActivate::1024-1151         5541     43.92%    100.00% # Bytes accessed per row activation
system.mem_ctrl.bytesPerActivate::total         12616                       # Bytes accessed per row activation
system.mem_ctrl.rdPerTurnAround::samples         2481                       # Reads before turning the bus around for writes
system.mem_ctrl.rdPerTurnAround::mean       30.579202                       # Reads before turning the bus around for writes
system.mem_ctrl.rdPerTurnAround::gmean      17.293781                       # Reads before turning the bus around for writes
system.mem_ctrl.rdPerTurnAround::stdev     657.153222                       # Reads before turning the bus around for writes
system.mem_ctrl.rdPerTurnAround::0-1023          2480     99.96%     99.96% # Reads before turning the bus around for writes
system.mem_ctrl.rdPerTurnAround::31744-32767            1      0.04%    100.00% # Reads before turning the bus around for writes
system.mem_ctrl.rdPerTurnAround::total           2481                       # Reads before turning the bus around for writes
system.mem_ctrl.wrPerTurnAround::samples         2481                       # Writes before turning the bus around for reads
system.mem_ctrl.wrPerTurnAround::mean       17.191052                       # Writes before turning the bus around for reads
system.mem_ctrl.wrPerTurnAround::gmean      17.184596                       # Writes before turning the bus around for reads
system.mem_ctrl.wrPerTurnAround::stdev       0.473253                       # Writes before turning the bus around for reads
system.mem_ctrl.wrPerTurnAround::16                86      3.47%      3.47% # Writes before turning the bus around for reads
system.mem_ctrl.wrPerTurnAround::17              1835     73.96%     77.43% # Writes before turning the bus around for reads
system.mem_ctrl.wrPerTurnAround::18               560     22.57%    100.00% # Writes before turning the bus around for reads
system.mem_ctrl.wrPerTurnAround::total           2481                       # Writes before turning the bus around for reads
system.mem_ctrl.masterReadBytes::.cpu.inst        37632                       # Per-master bytes read from memory
system.mem_ctrl.masterReadBytes::.cpu.data      4818368                       # Per-master bytes read from memory
system.mem_ctrl.masterWriteBytes::.writebacks      2729664                       # Per-master bytes write to memory
system.mem_ctrl.masterReadRate::.cpu.inst 3357240.468236554880                       # Per-master bytes read from memory rate (Bytes/sec)
system.mem_ctrl.masterReadRate::.cpu.data 429858100.564839303493                       # Per-master bytes read from memory rate (Bytes/sec)
system.mem_ctrl.masterWriteRate::.writebacks 243519835.392444401979                       # Per-master bytes write to memory rate (Bytes/sec)
system.mem_ctrl.masterReadAccesses::.cpu.inst          588                       # Per-master read serviced memory accesses
system.mem_ctrl.masterReadAccesses::.cpu.data        75287                       # Per-master read serviced memory accesses
system.mem_ctrl.masterWriteAccesses::.writebacks        42676                       # Per-master write serviced memory accesses
system.mem_ctrl.masterReadTotalLat::.cpu.inst     22613500                       # Per-master read total memory access latency
system.mem_ctrl.masterReadTotalLat::.cpu.data   2562493000                       # Per-master read total memory access latency
system.mem_ctrl.masterWriteTotalLat::.writebacks 157263801000                       # Per-master write total memory access latency
system.mem_ctrl.masterReadAvgLat::.cpu.inst     38458.33                       # Per-master read average memory access latency
system.mem_ctrl.masterReadAvgLat::.cpu.data     34036.33                       # Per-master read average memory access latency
system.mem_ctrl.masterWriteAvgLat::.writebacks   3685064.23                       # Per-master write average memory access latency
system.mem_ctrl.totQLat                    1162450250                       # Total ticks spent queuing
system.mem_ctrl.totMemAccLat               2585106500                       # Total ticks spent from burst creation until serviced by the DRAM
system.mem_ctrl.totBusLat                   379375000                       # Total ticks spent in databus transfers
system.mem_ctrl.avgQLat                      15320.60                       # Average queueing delay per DRAM burst
system.mem_ctrl.avgBusLat                     5000.00                       # Average bus latency per DRAM burst
system.mem_ctrl.avgMemAccLat                 34070.60                       # Average memory access latency per DRAM burst
system.mem_ctrl.avgRdBW                        433.22                       # Average DRAM read bandwidth in MiByte/s
system.mem_ctrl.avgWrBW                        243.52                       # Average achieved write bandwidth in MiByte/s
system.mem_ctrl.avgRdBWSys                     433.22                       # Average system read bandwidth in MiByte/s
system.mem_ctrl.avgWrBWSys                     243.66                       # Average system write bandwidth in MiByte/s
system.mem_ctrl.peakBW                       12800.00                       # Theoretical peak bandwidth in MiByte/s
system.mem_ctrl.busUtil                          5.29                       # Data bus utilization in percentage
system.mem_ctrl.busUtilRead                      3.38                       # Data bus utilization in percentage for reads
system.mem_ctrl.busUtilWrite                     1.90                       # Data bus utilization in percentage for writes
system.mem_ctrl.avgRdQLen                        1.00                       # Average read queue length when enqueuing
system.mem_ctrl.avgWrQLen                       14.74                       # Average write queue length when enqueuing
system.mem_ctrl.readRowHits                     68239                       # Number of row buffer hits during reads
system.mem_ctrl.writeRowHits                    37666                       # Number of row buffer hits during writes
system.mem_ctrl.readRowHitRate                  89.94                       # Row buffer hit rate for reads
system.mem_ctrl.writeRowHitRate                 88.26                       # Row buffer hit rate for writes
system.mem_ctrl.avgGap                       94551.46                       # Average gap between requests
system.mem_ctrl.pageHitRate                     89.33                       # Row buffer hit rate, read and write combined
system.mem_ctrl_0.actEnergy                  44774940                       # Energy for activate commands per rank (pJ)
system.mem_ctrl_0.preEnergy                  23783265                       # Energy for precharge commands per rank (pJ)
system.mem_ctrl_0.readEnergy                271698420                       # Energy for read commands per rank (pJ)
system.mem_ctrl_0.writeEnergy               112015980                       # Energy for write commands per rank (pJ)
system.mem_ctrl_0.refreshEnergy          482492400.000000                       # Energy for refresh commands per rank (pJ)
system.mem_ctrl_0.actBackEnergy             678265230                       # Energy for active background per rank (pJ)
system.mem_ctrl_0.preBackEnergy              37121280                       # Energy for precharge background per rank (pJ)
system.mem_ctrl_0.actPowerDownEnergy       1843048260                       # Energy for active power-down per rank (pJ)
system.mem_ctrl_0.prePowerDownEnergy        192188640                       # Energy for precharge power-down per rank (pJ)
system.mem_ctrl_0.selfRefreshEnergy        1243630020                       # Energy for self refresh per rank (pJ)
system.mem_ctrl_0.totalEnergy              4929621255                       # Total energy per rank (pJ)
system.mem_ctrl_0.averagePower             439.783269                       # Core power per rank (mW)
system.mem_ctrl_0.totalIdleTime            9623667500                       # Total Idle time Per DRAM Rank
system.mem_ctrl_0.memoryStateTime::IDLE      23526500                       # Time in different power states
system.mem_ctrl_0.memoryStateTime::REF      204100000                       # Time in different power states
system.mem_ctrl_0.memoryStateTime::SREF    5081510250                       # Time in different power states
system.mem_ctrl_0.memoryStateTime::PRE_PDN    500472500                       # Time in different power states
system.mem_ctrl_0.memoryStateTime::ACT     1357863250                       # Time in different power states
system.mem_ctrl_0.memoryStateTime::ACT_PDN   4041733500                       # Time in different power states
system.mem_ctrl_1.actEnergy                  45339000                       # Energy for activate commands per rank (pJ)
system.mem_ctrl_1.preEnergy                  24094455                       # Energy for precharge commands per rank (pJ)
system.mem_ctrl_1.readEnergy                270049080                       # Energy for read commands per rank (pJ)
system.mem_ctrl_1.writeEnergy               110622240                       # Energy for write commands per rank (pJ)
system.mem_ctrl_1.refreshEnergy          474502080.000000                       # Energy for refresh commands per rank (pJ)
system.mem_ctrl_1.actBackEnergy             659780130                       # Energy for active background per rank (pJ)
system.mem_ctrl_1.preBackEnergy              37112160                       # Energy for precharge background per rank (pJ)
system.mem_ctrl_1.actPowerDownEnergy       1826023500                       # Energy for active power-down per rank (pJ)
system.mem_ctrl_1.prePowerDownEnergy        181988160                       # Energy for precharge power-down per rank (pJ)
system.mem_ctrl_1.selfRefreshEnergy        1267043700                       # Energy for self refresh per rank (pJ)
system.mem_ctrl_1.totalEnergy              4896835395                       # Total energy per rank (pJ)
system.mem_ctrl_1.averagePower             436.858364                       # Core power per rank (mW)
system.mem_ctrl_1.totalIdleTime            9665002500                       # Total Idle time Per DRAM Rank
system.mem_ctrl_1.memoryStateTime::IDLE      22841250                       # Time in different power states
system.mem_ctrl_1.memoryStateTime::REF      200720000                       # Time in different power states
system.mem_ctrl_1.memoryStateTime::SREF    5186685250                       # Time in different power states
system.mem_ctrl_1.memoryStateTime::PRE_PDN    474010250                       # Time in different power states
system.mem_ctrl_1.memoryStateTime::ACT     1320480250                       # Time in different power states
system.mem_ctrl_1.memoryStateTime::ACT_PDN   4004469000                       # Time in different power states
system.pwrStateResidencyTicks::UNDEFINED  11209206000                       # Cumulative time (in ticks) in various power states
system.cpu.branchPred.lookups                 1204767                       # Number of BP lookups
system.cpu.branchPred.condPredicted           1204767                       # Number of conditional branches predicted
system.cpu.branchPred.condIncorrect               948                       # Number of conditional branches incorrect
system.cpu.branchPred.BTBLookups              1204332                       # Number of BTB lookups
system.cpu.branchPred.BTBHits                       0                       # Number of BTB hits
system.cpu.branchPred.BTBCorrect                    0                       # Number of correct BTB predictions (this stat may not work properly.
system.cpu.branchPred.BTBHitPct              0.000000                       # BTB Hit Percentage
system.cpu.branchPred.usedRAS                     346                       # Number of times the RAS was used to get a target.
system.cpu.branchPred.RASInCorrect                152                       # Number of incorrect RAS predictions.
system.cpu.branchPred.indirectLookups         1204332                       # Number of indirect predictor lookups.
system.cpu.branchPred.indirectHits            1200709                       # Number of indirect target hits.
system.cpu.branchPred.indirectMisses             3623                       # Number of indirect misses.
system.cpu.branchPredindirectMispredicted          742                       # Number of mispredicted indirect branches.
system.cpu.dtb.walker.pwrStateResidencyTicks::UNDEFINED  11209206000                       # Cumulative time (in ticks) in various power states
system.cpu.dtb.rdAccesses                     6003196                       # TLB accesses on read requests
system.cpu.dtb.wrAccesses                     2402190                       # TLB accesses on write requests
system.cpu.dtb.rdMisses                            93                       # TLB misses on read requests
system.cpu.dtb.wrMisses                          1199                       # TLB misses on write requests
system.cpu.apic_clk_domain.clock                 8000                       # Clock period in ticks
system.cpu.interrupts.pwrStateResidencyTicks::UNDEFINED  11209206000                       # Cumulative time (in ticks) in various power states
system.cpu.itb.walker.pwrStateResidencyTicks::UNDEFINED  11209206000                       # Cumulative time (in ticks) in various power states
system.cpu.itb.rdAccesses                           0                       # TLB accesses on read requests
system.cpu.itb.wrAccesses                     2403326                       # TLB accesses on write requests
system.cpu.itb.rdMisses                             0                       # TLB misses on read requests
system.cpu.itb.wrMisses                           163                       # TLB misses on write requests
system.cpu.workload.numSyscalls                    13                       # Number of system calls
system.cpu.pwrStateResidencyTicks::ON     11209206000                       # Cumulative time (in ticks) in various power states
system.cpu.numCycles                         22418413                       # number of cpu cycles simulated
system.cpu.numWorkItemsStarted                      0                       # number of work items this cpu started
system.cpu.numWorkItemsCompleted                    0                       # number of work items this cpu completed
system.cpu.fetch.icacheStallCycles              39705                       # Number of cycles fetch is stalled on an Icache miss
system.cpu.fetch.Insts                       12022943                       # Number of instructions fetch has processed
system.cpu.fetch.Branches                     1204767                       # Number of branches that fetch encountered
system.cpu.fetch.predictedBranches            1201055                       # Number of branches that fetch has predicted taken
system.cpu.fetch.Cycles                      22343349                       # Number of cycles fetch has run and was not squashing or blocked
system.cpu.fetch.SquashCycles                    2162                       # Number of cycles fetch has spent squashing
system.cpu.fetch.TlbCycles                         70                       # Number of cycles fetch has spent waiting for tlb
system.cpu.fetch.MiscStallCycles                   90                       # Number of cycles fetch has spent waiting on interrupts, or bad addresses, or out of MSHRs
system.cpu.fetch.PendingTrapStallCycles          1031                       # Number of stall cycles due to pending traps
system.cpu.fetch.PendingQuiesceStallCycles           20                       # Number of stall cycles due to pending quiesce instructions
system.cpu.fetch.CacheLines                   2403211                       # Number of cache lines fetched
system.cpu.fetch.IcacheSquashes                   397                       # Number of outstanding Icache misses that were squashed
system.cpu.fetch.ItlbSquashes                       1                       # Number of outstanding ITLB misses that were squashed
system.cpu.fetch.rateDist::samples           22385346                       # Number of instructions fetched each cycle (Total)
system.cpu.fetch.rateDist::mean              0.913296                       # Number of instructions fetched each cycle (Total)
system.cpu.fetch.rateDist::stdev             0.967844                       # Number of instructions fetched each cycle (Total)
system.cpu.fetch.rateDist::underflows               0      0.00%      0.00% # Number of instructions fetched each cycle (Total)
system.cpu.fetch.rateDist::0                 11539006     51.55%     51.55% # Number of instructions fetched each cycle (Total)
system.cpu.fetch.rateDist::1                  1248230      5.58%     57.12% # Number of instructions fetched each cycle (Total)
system.cpu.fetch.rateDist::2                  9598110     42.88%    100.00% # Number of instructions fetched each cycle (Total)
system.cpu.fetch.rateDist::overflows                0      0.00%    100.00% # Number of instructions fetched each cycle (Total)
system.cpu.fetch.rateDist::min_value                0                       # Number of instructions fetched each cycle (Total)
system.cpu.fetch.rateDist::max_value                2                       # Number of instructions fetched each cycle (Total)
system.cpu.fetch.rateDist::total             22385346                       # Number of instructions fetched each cycle (Total)
system.cpu.fetch.branchRate                  0.053740                       # Number of branch fetches per cycle
system.cpu.fetch.rate                        0.536298                       # Number of inst fetches per cycle
system.cpu.decode.IdleCycles                   939396                       # Number of cycles decode is idle
system.cpu.decode.BlockedCycles              11223863                       # Number of cycles decode is blocked
system.cpu.decode.RunCycles                   8997125                       # Number of cycles decode is running
system.cpu.decode.UnblockCycles               1223881                       # Number of cycles decode is unblocking
system.cpu.decode.SquashCycles                   1081                       # Number of cycles decode is squashing
system.cpu.decode.DecodedInsts               20438827                       # Number of instructions handled by decode
system.cpu.decode.SquashedInsts                  1994                       # Number of squashed instructions handled by decode
system.cpu.rename.SquashCycles                   1081                       # Number of cycles rename is squashing
system.cpu.rename.IdleCycles                  1588219                       # Number of cycles rename is idle
system.cpu.rename.BlockCycles                   28325                       # Number of cycles rename is blocking
system.cpu.rename.serializeStallCycles           1420                       # count of cycles rename stalled for serializing inst
system.cpu.rename.RunCycles                   9572139                       # Number of cycles rename is running
system.cpu.rename.UnblockCycles              11194162                       # Number of cycles rename is unblocking
system.cpu.rename.RenamedInsts               20436440                       # Number of instructions processed by rename
system.cpu.rename.SquashedInsts                  1021                       # Number of squashed instructions processed by rename
system.cpu.rename.ROBFullEvents                    31                       # Number of times rename has blocked due to ROB full
system.cpu.rename.IQFullEvents                 248552                       # Number of times rename has blocked due to IQ full
system.cpu.rename.LQFullEvents                      7                       # Number of times rename has blocked due to LQ full
system.cpu.rename.SQFullEvents               10298512                       # Number of times rename has blocked due to SQ full
system.cpu.rename.FullRegisterEvents               12                       # Number of times there has been no free registers
system.cpu.rename.RenamedOperands            24039941                       # Number of destination operands rename has renamed
system.cpu.rename.RenameLookups              50490068                       # Number of register rename lookups that rename has made
system.cpu.rename.int_rename_lookups         33651086                       # Number of integer rename lookups
system.cpu.rename.fp_rename_lookups              4026                       # Number of floating rename lookups
system.cpu.rename.CommittedMaps              24022692                       # Number of HB maps that are committed
system.cpu.rename.UndoneMaps                    17249                       # Number of HB maps that are undone due to squashing
system.cpu.rename.serializingInsts                 28                       # count of serializing insts renamed
system.cpu.rename.tempSerializingInsts             25                       # count of temporary serializing insts renamed
system.cpu.rename.skidInsts                   1641510                       # count of insts added to the skid buffer
system.cpu.memDep0.insertedLoads              6004021                       # Number of loads inserted to the mem dependence unit.
system.cpu.memDep0.insertedStores             2402845                       # Number of stores inserted to the mem dependence unit.
system.cpu.memDep0.conflictingLoads           4195364                       # Number of conflicting loads.
system.cpu.memDep0.conflictingStores           848426                       # Number of conflicting stores.
system.cpu.iq.iqInstsAdded                   20433916                       # Number of instructions added to the IQ (excludes non-spec)
system.cpu.iq.iqNonSpecInstsAdded                  97                       # Number of non-speculative instructions added to the IQ
system.cpu.iq.iqInstsIssued                  20429958                       # Number of instructions issued
system.cpu.iq.iqSquashedInstsIssued               530                       # Number of squashed instructions issued
system.cpu.iq.iqSquashedInstsExamined           13313                       # Number of squashed instructions iterated over during squash; mainly for profiling
system.cpu.iq.iqSquashedOperandsExamined        17239                       # Number of squashed operands that are examined and possibly removed from graph
system.cpu.iq.iqSquashedNonSpecRemoved             66                       # Number of squashed non-spec instructions that were removed
system.cpu.iq.issued_per_cycle::samples      22385346                       # Number of insts issued each cycle
system.cpu.iq.issued_per_cycle::mean         0.912649                       # Number of insts issued each cycle
system.cpu.iq.issued_per_cycle::stdev        0.865301                       # Number of insts issued each cycle
system.cpu.iq.issued_per_cycle::underflows            0      0.00%      0.00% # Number of insts issued each cycle
system.cpu.iq.issued_per_cycle::0             9443568     42.19%     42.19% # Number of insts issued each cycle
system.cpu.iq.issued_per_cycle::1             5453598     24.36%     66.55% # Number of insts issued each cycle
system.cpu.iq.issued_per_cycle::2             7488180     33.45%    100.00% # Number of insts issued each cycle
system.cpu.iq.issued_per_cycle::overflows            0      0.00%    100.00% # Number of insts issued each cycle
system.cpu.iq.issued_per_cycle::min_value            0                       # Number of insts issued each cycle
system.cpu.iq.issued_per_cycle::max_value            2                       # Number of insts issued each cycle
system.cpu.iq.issued_per_cycle::total        22385346                       # Number of insts issued each cycle
system.cpu.iq.fu_full::No_OpClass                   0      0.00%      0.00% # attempts to use FU when none available
system.cpu.iq.fu_full::IntAlu                       0      0.00%      0.00% # attempts to use FU when none available
system.cpu.iq.fu_full::IntMult                      0      0.00%      0.00% # attempts to use FU when none available
system.cpu.iq.fu_full::IntDiv                       0      0.00%      0.00% # attempts to use FU when none available
system.cpu.iq.fu_full::FloatAdd                     0      0.00%      0.00% # attempts to use FU when none available
system.cpu.iq.fu_full::FloatCmp                     0      0.00%      0.00% # attempts to use FU when none available
system.cpu.iq.fu_full::FloatCvt                     0      0.00%      0.00% # attempts to use FU when none available
system.cpu.iq.fu_full::FloatMult                    0      0.00%      0.00% # attempts to use FU when none available
system.cpu.iq.fu_full::FloatMultAcc                 0      0.00%      0.00% # attempts to use FU when none available
system.cpu.iq.fu_full::FloatDiv                     0      0.00%      0.00% # attempts to use FU when none available
system.cpu.iq.fu_full::FloatMisc                    0      0.00%      0.00% # attempts to use FU when none available
system.cpu.iq.fu_full::FloatSqrt                    0      0.00%      0.00% # attempts to use FU when none available
system.cpu.iq.fu_full::SimdAdd                    248      0.01%      0.01% # attempts to use FU when none available
system.cpu.iq.fu_full::SimdAddAcc                   0      0.00%      0.01% # attempts to use FU when none available
system.cpu.iq.fu_full::SimdAlu                     53      0.00%      0.01% # attempts to use FU when none available
system.cpu.iq.fu_full::SimdCmp                      0      0.00%      0.01% # attempts to use FU when none available
system.cpu.iq.fu_full::SimdCvt                     26      0.00%      0.01% # attempts to use FU when none available
system.cpu.iq.fu_full::SimdMisc                   123      0.00%      0.01% # attempts to use FU when none available
system.cpu.iq.fu_full::SimdMult                     0      0.00%      0.01% # attempts to use FU when none available
system.cpu.iq.fu_full::SimdMultAcc                  0      0.00%      0.01% # attempts to use FU when none available
system.cpu.iq.fu_full::SimdShift                  124      0.00%      0.02% # attempts to use FU when none available
system.cpu.iq.fu_full::SimdShiftAcc                 0      0.00%      0.02% # attempts to use FU when none available
system.cpu.iq.fu_full::SimdSqrt                     0      0.00%      0.02% # attempts to use FU when none available
system.cpu.iq.fu_full::SimdFloatAdd                 0      0.00%      0.02% # attempts to use FU when none available
system.cpu.iq.fu_full::SimdFloatAlu                 0      0.00%      0.02% # attempts to use FU when none available
system.cpu.iq.fu_full::SimdFloatCmp                 0      0.00%      0.02% # attempts to use FU when none available
system.cpu.iq.fu_full::SimdFloatCvt                 0      0.00%      0.02% # attempts to use FU when none available
system.cpu.iq.fu_full::SimdFloatDiv                 0      0.00%      0.02% # attempts to use FU when none available
system.cpu.iq.fu_full::SimdFloatMisc                0      0.00%      0.02% # attempts to use FU when none available
system.cpu.iq.fu_full::SimdFloatMult                0      0.00%      0.02% # attempts to use FU when none available
system.cpu.iq.fu_full::SimdFloatMultAcc             0      0.00%      0.02% # attempts to use FU when none available
system.cpu.iq.fu_full::SimdFloatSqrt                0      0.00%      0.02% # attempts to use FU when none available
system.cpu.iq.fu_full::SimdAes                      0      0.00%      0.02% # attempts to use FU when none available
system.cpu.iq.fu_full::SimdAesMix                   0      0.00%      0.02% # attempts to use FU when none available
system.cpu.iq.fu_full::SimdSha1Hash                 0      0.00%      0.02% # attempts to use FU when none available
system.cpu.iq.fu_full::SimdSha1Hash2                0      0.00%      0.02% # attempts to use FU when none available
system.cpu.iq.fu_full::SimdSha256Hash               0      0.00%      0.02% # attempts to use FU when none available
system.cpu.iq.fu_full::SimdSha256Hash2              0      0.00%      0.02% # attempts to use FU when none available
system.cpu.iq.fu_full::SimdShaSigma2                0      0.00%      0.02% # attempts to use FU when none available
system.cpu.iq.fu_full::SimdShaSigma3                0      0.00%      0.02% # attempts to use FU when none available
system.cpu.iq.fu_full::MemRead                3769180     99.98%    100.00% # attempts to use FU when none available
system.cpu.iq.fu_full::MemWrite                   176      0.00%    100.00% # attempts to use FU when none available
system.cpu.iq.fu_full::FloatMemRead                 0      0.00%    100.00% # attempts to use FU when none available
system.cpu.iq.fu_full::FloatMemWrite                0      0.00%    100.00% # attempts to use FU when none available
system.cpu.iq.fu_full::IprAccess                    0      0.00%    100.00% # attempts to use FU when none available
system.cpu.iq.fu_full::InstPrefetch                 0      0.00%    100.00% # attempts to use FU when none available
system.cpu.iq.FU_type_0::No_OpClass               358      0.00%      0.00% # Type of FU issued
system.cpu.iq.FU_type_0::IntAlu              12022698     58.85%     58.85% # Type of FU issued
system.cpu.iq.FU_type_0::IntMult                   11      0.00%     58.85% # Type of FU issued
system.cpu.iq.FU_type_0::IntDiv                    31      0.00%     58.85% # Type of FU issued
system.cpu.iq.FU_type_0::FloatAdd                  13      0.00%     58.85% # Type of FU issued
system.cpu.iq.FU_type_0::FloatCmp                   0      0.00%     58.85% # Type of FU issued
system.cpu.iq.FU_type_0::FloatCvt                   0      0.00%     58.85% # Type of FU issued
system.cpu.iq.FU_type_0::FloatMult                  0      0.00%     58.85% # Type of FU issued
system.cpu.iq.FU_type_0::FloatMultAcc               0      0.00%     58.85% # Type of FU issued
system.cpu.iq.FU_type_0::FloatDiv                   0      0.00%     58.85% # Type of FU issued
system.cpu.iq.FU_type_0::FloatMisc                  0      0.00%     58.85% # Type of FU issued
system.cpu.iq.FU_type_0::FloatSqrt                  0      0.00%     58.85% # Type of FU issued
system.cpu.iq.FU_type_0::SimdAdd                  375      0.00%     58.85% # Type of FU issued
system.cpu.iq.FU_type_0::SimdAddAcc                 0      0.00%     58.85% # Type of FU issued
system.cpu.iq.FU_type_0::SimdAlu                   86      0.00%     58.85% # Type of FU issued
system.cpu.iq.FU_type_0::SimdCmp                    0      0.00%     58.85% # Type of FU issued
system.cpu.iq.FU_type_0::SimdCvt                  128      0.00%     58.85% # Type of FU issued
system.cpu.iq.FU_type_0::SimdMisc                 239      0.00%     58.85% # Type of FU issued
system.cpu.iq.FU_type_0::SimdMult                   0      0.00%     58.85% # Type of FU issued
system.cpu.iq.FU_type_0::SimdMultAcc                0      0.00%     58.85% # Type of FU issued
system.cpu.iq.FU_type_0::SimdShift                186      0.00%     58.86% # Type of FU issued
system.cpu.iq.FU_type_0::SimdShiftAcc               0      0.00%     58.86% # Type of FU issued
system.cpu.iq.FU_type_0::SimdSqrt                   0      0.00%     58.86% # Type of FU issued
system.cpu.iq.FU_type_0::SimdFloatAdd               0      0.00%     58.86% # Type of FU issued
system.cpu.iq.FU_type_0::SimdFloatAlu               0      0.00%     58.86% # Type of FU issued
system.cpu.iq.FU_type_0::SimdFloatCmp               0      0.00%     58.86% # Type of FU issued
system.cpu.iq.FU_type_0::SimdFloatCvt               0      0.00%     58.86% # Type of FU issued
system.cpu.iq.FU_type_0::SimdFloatDiv               0      0.00%     58.86% # Type of FU issued
system.cpu.iq.FU_type_0::SimdFloatMisc              0      0.00%     58.86% # Type of FU issued
system.cpu.iq.FU_type_0::SimdFloatMult              0      0.00%     58.86% # Type of FU issued
system.cpu.iq.FU_type_0::SimdFloatMultAcc            0      0.00%     58.86% # Type of FU issued
system.cpu.iq.FU_type_0::SimdFloatSqrt              0      0.00%     58.86% # Type of FU issued
system.cpu.iq.FU_type_0::SimdAes                    0      0.00%     58.86% # Type of FU issued
system.cpu.iq.FU_type_0::SimdAesMix                 0      0.00%     58.86% # Type of FU issued
system.cpu.iq.FU_type_0::SimdSha1Hash               0      0.00%     58.86% # Type of FU issued
system.cpu.iq.FU_type_0::SimdSha1Hash2              0      0.00%     58.86% # Type of FU issued
system.cpu.iq.FU_type_0::SimdSha256Hash             0      0.00%     58.86% # Type of FU issued
system.cpu.iq.FU_type_0::SimdSha256Hash2            0      0.00%     58.86% # Type of FU issued
system.cpu.iq.FU_type_0::SimdShaSigma2              0      0.00%     58.86% # Type of FU issued
system.cpu.iq.FU_type_0::SimdShaSigma3              0      0.00%     58.86% # Type of FU issued
system.cpu.iq.FU_type_0::MemRead              6003405     29.39%     88.24% # Type of FU issued
system.cpu.iq.FU_type_0::MemWrite             2401899     11.76%    100.00% # Type of FU issued
system.cpu.iq.FU_type_0::FloatMemRead              87      0.00%    100.00% # Type of FU issued
system.cpu.iq.FU_type_0::FloatMemWrite            442      0.00%    100.00% # Type of FU issued
system.cpu.iq.FU_type_0::IprAccess                  0      0.00%    100.00% # Type of FU issued
system.cpu.iq.FU_type_0::InstPrefetch               0      0.00%    100.00% # Type of FU issued
system.cpu.iq.FU_type_0::total               20429958                       # Type of FU issued
system.cpu.iq.rate                           0.911303                       # Inst issue rate
system.cpu.iq.fu_busy_cnt                     3769930                       # FU busy when requested
system.cpu.iq.fu_busy_rate                   0.184530                       # FU busy rate (busy events/executed inst)
system.cpu.iq.int_inst_queue_reads           67010981                       # Number of integer instruction queue reads
system.cpu.iq.int_inst_queue_writes          20445187                       # Number of integer instruction queue writes
system.cpu.iq.int_inst_queue_wakeup_accesses     20425120                       # Number of integer instruction queue wakeup accesses
system.cpu.iq.fp_inst_queue_reads                4741                       # Number of floating instruction queue reads
system.cpu.iq.fp_inst_queue_writes               2191                       # Number of floating instruction queue writes
system.cpu.iq.fp_inst_queue_wakeup_accesses         2056                       # Number of floating instruction queue wakeup accesses
system.cpu.iq.vec_inst_queue_reads                  0                       # Number of vector instruction queue reads
system.cpu.iq.vec_inst_queue_writes                 0                       # Number of vector instruction queue writes
system.cpu.iq.vec_inst_queue_wakeup_accesses            0                       # Number of vector instruction queue wakeup accesses
system.cpu.iq.int_alu_accesses               24196874                       # Number of integer alu accesses
system.cpu.iq.fp_alu_accesses                    2656                       # Number of floating point alu accesses
system.cpu.iq.vec_alu_accesses                      0                       # Number of vector alu accesses
system.cpu.iew.lsq.thread0.forwLoads          4800136                       # Number of loads that had data forwarded from stores
system.cpu.iew.lsq.thread0.invAddrLoads             0                       # Number of loads ignored due to an invalid address
system.cpu.iew.lsq.thread0.squashedLoads         1729                       # Number of loads squashed
system.cpu.iew.lsq.thread0.ignoredResponses           11                       # Number of memory responses ignored because the instruction is squashed
system.cpu.iew.lsq.thread0.memOrderViolation           52                       # Number of memory ordering violations
system.cpu.iew.lsq.thread0.squashedStores         1009                       # Number of stores squashed
system.cpu.iew.lsq.thread0.invAddrSwpfs             0                       # Number of software prefetches ignored due to an invalid address
system.cpu.iew.lsq.thread0.blockedLoads             0                       # Number of blocked loads due to partial load-store forwarding
system.cpu.iew.lsq.thread0.rescheduledLoads            1                       # Number of loads that were rescheduled
system.cpu.iew.lsq.thread0.cacheBlocked             0                       # Number of times an access to memory failed due to the cache being blocked
system.cpu.iew.iewIdleCycles                        0                       # Number of cycles IEW is idle
system.cpu.iew.iewSquashCycles                   1081                       # Number of cycles IEW is squashing
system.cpu.iew.iewBlockCycles                    1678                       # Number of cycles IEW is blocking
system.cpu.iew.iewUnblockCycles                  1233                       # Number of cycles IEW is unblocking
system.cpu.iew.iewDispatchedInsts            20434013                       # Number of instructions dispatched to IQ
system.cpu.iew.iewDispSquashedInsts               882                       # Number of squashed instructions skipped by dispatch
system.cpu.iew.iewDispLoadInsts               6004021                       # Number of dispatched load instructions
system.cpu.iew.iewDispStoreInsts              2402845                       # Number of dispatched store instructions
system.cpu.iew.iewDispNonSpecInsts                 46                       # Number of dispatched non-speculative instructions
system.cpu.iew.iewIQFullEvents                     18                       # Number of times the IQ has become full, causing a stall
system.cpu.iew.iewLSQFullEvents                  1196                       # Number of times the LSQ has become full, causing a stall
system.cpu.iew.memOrderViolationEvents             52                       # Number of memory order violations
system.cpu.iew.predictedTakenIncorrect            186                       # Number of branches that were predicted taken incorrectly
system.cpu.iew.predictedNotTakenIncorrect          979                       # Number of branches that were predicted not taken incorrectly
system.cpu.iew.branchMispredicts                 1165                       # Number of branch mispredicts detected at execute
system.cpu.iew.iewExecutedInsts              20427773                       # Number of executed instructions
system.cpu.iew.iewExecLoadInsts               6003190                       # Number of load instructions executed
system.cpu.iew.iewExecSquashedInsts              2185                       # Number of squashed instructions skipped in execute
system.cpu.iew.exec_swp                             0                       # number of swp insts executed
system.cpu.iew.exec_nop                             0                       # number of nop insts executed
system.cpu.iew.exec_refs                      8405380                       # number of memory reference insts executed
system.cpu.iew.exec_branches                  1202604                       # Number of branches executed
system.cpu.iew.exec_stores                    2402190                       # Number of stores executed
system.cpu.iew.exec_rate                     0.911205                       # Inst execution rate
system.cpu.iew.wb_sent                       20427483                       # cumulative count of insts sent to commit
system.cpu.iew.wb_count                      20427176                       # cumulative count of insts written-back
system.cpu.iew.wb_producers                  16495394                       # num instructions producing a value
system.cpu.iew.wb_consumers                  18754942                       # num instructions consuming a value
system.cpu.iew.wb_rate                       0.911179                       # insts written-back per cycle
system.cpu.iew.wb_fanout                     0.879523                       # average fanout of values written-back
system.cpu.commit.commitSquashedInsts           12033                       # The number of squashed insts skipped by commit
system.cpu.commit.commitNonSpecStalls              31                       # The number of times commit has been forced to stall to communicate backwards
system.cpu.commit.branchMispredicts              1031                       # The number of times a branch was mispredicted
system.cpu.commit.committed_per_cycle::samples     22383947                       # Number of insts commited each cycle
system.cpu.commit.committed_per_cycle::mean     0.912292                       # Number of insts commited each cycle
system.cpu.commit.committed_per_cycle::stdev     0.920665                       # Number of insts commited each cycle
system.cpu.commit.committed_per_cycle::underflows            0      0.00%      0.00% # Number of insts commited each cycle
system.cpu.commit.committed_per_cycle::0     10554309     47.15%     47.15% # Number of insts commited each cycle
system.cpu.commit.committed_per_cycle::1      3238577     14.47%     61.62% # Number of insts commited each cycle
system.cpu.commit.committed_per_cycle::2      8591061     38.38%    100.00% # Number of insts commited each cycle
system.cpu.commit.committed_per_cycle::overflows            0      0.00%    100.00% # Number of insts commited each cycle
system.cpu.commit.committed_per_cycle::min_value            0                       # Number of insts commited each cycle
system.cpu.commit.committed_per_cycle::max_value            2                       # Number of insts commited each cycle
system.cpu.commit.committed_per_cycle::total     22383947                       # Number of insts commited each cycle
system.cpu.commit.committedInsts             12010628                       # Number of instructions committed
system.cpu.commit.committedOps               20420699                       # Number of ops (including micro ops) committed
system.cpu.commit.swp_count                         0                       # Number of s/w prefetches committed
system.cpu.commit.refs                        8404128                       # Number of memory references committed
system.cpu.commit.loads                       6002292                       # Number of loads committed
system.cpu.commit.membars                          12                       # Number of memory barriers committed
system.cpu.commit.branches                    1202191                       # Number of branches committed
system.cpu.commit.vec_insts                         0                       # Number of committed Vector instructions.
system.cpu.commit.fp_insts                       2027                       # Number of committed floating point instructions.
system.cpu.commit.int_insts                  20419098                       # Number of committed integer instructions.
system.cpu.commit.function_calls                  190                       # Number of function calls committed.
system.cpu.commit.op_class_0::No_OpClass          108      0.00%      0.00% # Class of committed instruction
system.cpu.commit.op_class_0::IntAlu         12015404     58.84%     58.84% # Class of committed instruction
system.cpu.commit.op_class_0::IntMult              11      0.00%     58.84% # Class of committed instruction
system.cpu.commit.op_class_0::IntDiv               28      0.00%     58.84% # Class of committed instruction
system.cpu.commit.op_class_0::FloatAdd             12      0.00%     58.84% # Class of committed instruction
system.cpu.commit.op_class_0::FloatCmp              0      0.00%     58.84% # Class of committed instruction
system.cpu.commit.op_class_0::FloatCvt              0      0.00%     58.84% # Class of committed instruction
system.cpu.commit.op_class_0::FloatMult             0      0.00%     58.84% # Class of committed instruction
system.cpu.commit.op_class_0::FloatMultAcc            0      0.00%     58.84% # Class of committed instruction
system.cpu.commit.op_class_0::FloatDiv              0      0.00%     58.84% # Class of committed instruction
system.cpu.commit.op_class_0::FloatMisc             0      0.00%     58.84% # Class of committed instruction
system.cpu.commit.op_class_0::FloatSqrt             0      0.00%     58.84% # Class of committed instruction
system.cpu.commit.op_class_0::SimdAdd             374      0.00%     58.84% # Class of committed instruction
system.cpu.commit.op_class_0::SimdAddAcc            0      0.00%     58.84% # Class of committed instruction
system.cpu.commit.op_class_0::SimdAlu              82      0.00%     58.84% # Class of committed instruction
system.cpu.commit.op_class_0::SimdCmp               0      0.00%     58.84% # Class of committed instruction
system.cpu.commit.op_class_0::SimdCvt             128      0.00%     58.84% # Class of committed instruction
system.cpu.commit.op_class_0::SimdMisc            238      0.00%     58.84% # Class of committed instruction
system.cpu.commit.op_class_0::SimdMult              0      0.00%     58.84% # Class of committed instruction
system.cpu.commit.op_class_0::SimdMultAcc            0      0.00%     58.84% # Class of committed instruction
system.cpu.commit.op_class_0::SimdShift           186      0.00%     58.85% # Class of committed instruction
system.cpu.commit.op_class_0::SimdShiftAcc            0      0.00%     58.85% # Class of committed instruction
system.cpu.commit.op_class_0::SimdSqrt              0      0.00%     58.85% # Class of committed instruction
system.cpu.commit.op_class_0::SimdFloatAdd            0      0.00%     58.85% # Class of committed instruction
system.cpu.commit.op_class_0::SimdFloatAlu            0      0.00%     58.85% # Class of committed instruction
system.cpu.commit.op_class_0::SimdFloatCmp            0      0.00%     58.85% # Class of committed instruction
system.cpu.commit.op_class_0::SimdFloatCvt            0      0.00%     58.85% # Class of committed instruction
system.cpu.commit.op_class_0::SimdFloatDiv            0      0.00%     58.85% # Class of committed instruction
system.cpu.commit.op_class_0::SimdFloatMisc            0      0.00%     58.85% # Class of committed instruction
system.cpu.commit.op_class_0::SimdFloatMult            0      0.00%     58.85% # Class of committed instruction
system.cpu.commit.op_class_0::SimdFloatMultAcc            0      0.00%     58.85% # Class of committed instruction
system.cpu.commit.op_class_0::SimdFloatSqrt            0      0.00%     58.85% # Class of committed instruction
system.cpu.commit.op_class_0::SimdAes               0      0.00%     58.85% # Class of committed instruction
system.cpu.commit.op_class_0::SimdAesMix            0      0.00%     58.85% # Class of committed instruction
system.cpu.commit.op_class_0::SimdSha1Hash            0      0.00%     58.85% # Class of committed instruction
system.cpu.commit.op_class_0::SimdSha1Hash2            0      0.00%     58.85% # Class of committed instruction
system.cpu.commit.op_class_0::SimdSha256Hash            0      0.00%     58.85% # Class of committed instruction
system.cpu.commit.op_class_0::SimdSha256Hash2            0      0.00%     58.85% # Class of committed instruction
system.cpu.commit.op_class_0::SimdShaSigma2            0      0.00%     58.85% # Class of committed instruction
system.cpu.commit.op_class_0::SimdShaSigma3            0      0.00%     58.85% # Class of committed instruction
system.cpu.commit.op_class_0::MemRead         6002224     29.39%     88.24% # Class of committed instruction
system.cpu.commit.op_class_0::MemWrite        2401419     11.76%    100.00% # Class of committed instruction
system.cpu.commit.op_class_0::FloatMemRead           68      0.00%    100.00% # Class of committed instruction
system.cpu.commit.op_class_0::FloatMemWrite          417      0.00%    100.00% # Class of committed instruction
system.cpu.commit.op_class_0::IprAccess             0      0.00%    100.00% # Class of committed instruction
system.cpu.commit.op_class_0::InstPrefetch            0      0.00%    100.00% # Class of committed instruction
system.cpu.commit.op_class_0::total          20420699                       # Class of committed instruction
system.cpu.commit.bw_lim_events               8591061                       # number cycles where commit BW limit reached
system.cpu.rob.rob_reads                     34225618                       # The number of ROB reads
system.cpu.rob.rob_writes                    40866864                       # The number of ROB writes
system.cpu.timesIdled                             340                       # Number of times that the entire CPU went into an idle state and unscheduled itself
system.cpu.idleCycles                           33067                       # Total number of cycles that the CPU has spent unscheduled due to idling
system.cpu.committedInsts                    12010628                       # Number of Instructions Simulated
system.cpu.committedOps                      20420699                       # Number of Ops (including micro ops) Simulated
system.cpu.cpi                               1.866548                       # CPI: Cycles Per Instruction
system.cpu.cpi_total                         1.866548                       # CPI: Total CPI of All Threads
system.cpu.ipc                               0.535748                       # IPC: Instructions Per Cycle
system.cpu.ipc_total                         0.535748                       # IPC: Total IPC of All Threads
system.cpu.int_regfile_reads                 33636540                       # number of integer regfile reads
system.cpu.int_regfile_writes                16820799                       # number of integer regfile writes
system.cpu.fp_regfile_reads                      3944                       # number of floating regfile reads
system.cpu.fp_regfile_writes                     1560                       # number of floating regfile writes
system.cpu.cc_regfile_reads                   6012576                       # number of cc regfile reads
system.cpu.cc_regfile_writes                  7207491                       # number of cc regfile writes
system.cpu.misc_regfile_reads                10811829                       # number of misc regfile reads
system.cpu.dcache.tags.pwrStateResidencyTicks::UNDEFINED  11209206000                       # Cumulative time (in ticks) in various power states
system.cpu.dcache.tags.tagsinuse           255.522226                       # Cycle average of tags in use
system.cpu.dcache.tags.total_refs             3604693                       # Total number of references to valid blocks.
system.cpu.dcache.tags.sampled_refs             75297                       # Sample count of references to valid blocks.
system.cpu.dcache.tags.avg_refs             47.872996                       # Average number of references to valid blocks.
system.cpu.dcache.tags.warmup_cycle            170000                       # Cycle when the warmup percentage was hit.
system.cpu.dcache.tags.occ_blocks::.cpu.data   255.522226                       # Average occupied blocks per requestor
system.cpu.dcache.tags.occ_percent::.cpu.data     0.998134                       # Average percentage of cache occupancy
system.cpu.dcache.tags.occ_percent::total     0.998134                       # Average percentage of cache occupancy
system.cpu.dcache.tags.occ_task_id_blocks::1024          256                       # Occupied blocks per task id
system.cpu.dcache.tags.age_task_id_blocks_1024::0           28                       # Occupied blocks per task id
system.cpu.dcache.tags.age_task_id_blocks_1024::1          227                       # Occupied blocks per task id
system.cpu.dcache.tags.age_task_id_blocks_1024::4            1                       # Occupied blocks per task id
system.cpu.dcache.tags.occ_task_id_percent::1024            1                       # Percentage of cache occupancy per task id
system.cpu.dcache.tags.tag_accesses          28913969                       # Number of tag accesses
system.cpu.dcache.tags.data_accesses         28913969                       # Number of data accesses
system.cpu.dcache.pwrStateResidencyTicks::UNDEFINED  11209206000                       # Cumulative time (in ticks) in various power states
system.cpu.dcache.ReadReq_hits::.cpu.data      1202693                       # number of ReadReq hits
system.cpu.dcache.ReadReq_hits::total         1202693                       # number of ReadReq hits
system.cpu.dcache.WriteReq_hits::.cpu.data      2326703                       # number of WriteReq hits
system.cpu.dcache.WriteReq_hits::total        2326703                       # number of WriteReq hits
system.cpu.dcache.demand_hits::.cpu.data      3529396                       # number of demand (read+write) hits
system.cpu.dcache.demand_hits::total          3529396                       # number of demand (read+write) hits
system.cpu.dcache.overall_hits::.cpu.data      3529396                       # number of overall hits
system.cpu.dcache.overall_hits::total         3529396                       # number of overall hits
system.cpu.dcache.ReadReq_misses::.cpu.data          305                       # number of ReadReq misses
system.cpu.dcache.ReadReq_misses::total           305                       # number of ReadReq misses
system.cpu.dcache.WriteReq_misses::.cpu.data        75133                       # number of WriteReq misses
system.cpu.dcache.WriteReq_misses::total        75133                       # number of WriteReq misses
system.cpu.dcache.demand_misses::.cpu.data        75438                       # number of demand (read+write) misses
system.cpu.dcache.demand_misses::total          75438                       # number of demand (read+write) misses
[...]
system.l3cache.tags.occ_blocks::.cpu.data 25826.162824                       # Average occupied blocks per requestor
system.l3cache.tags.occ_percent::.cpu.inst     0.004543                       # Average percentage of cache occupancy
system.l3cache.tags.occ_percent::.cpu.data     0.788152                       # Average percentage of cache occupancy
system.l3cache.tags.occ_percent::total       0.792695                       # Average percentage of cache occupancy
system.l3cache.tags.occ_task_id_blocks::1024        32768                       # Occupied blocks per task id
system.l3cache.tags.age_task_id_blocks_1024::0          159                       # Occupied blocks per task id
system.l3cache.tags.age_task_id_blocks_1024::1          683                       # Occupied blocks per task id
system.l3cache.tags.age_task_id_blocks_1024::2         5938                       # Occupied blocks per task id
system.l3cache.tags.age_task_id_blocks_1024::3        25988                       # Occupied blocks per task id
system.l3cache.tags.occ_task_id_percent::1024            1                       # Percentage of cache occupancy per task id
system.l3cache.tags.tag_accesses              2431539                       # Number of tag accesses
system.l3cache.tags.data_accesses             2431539                       # Number of data accesses
system.l3cache.pwrStateResidencyTicks::UNDEFINED  11209206000                       # Cumulative time (in ticks) in various power states
system.l3cache.WritebackDirty_hits::.writebacks        71351                       # number of WritebackDirty hits
system.l3cache.WritebackDirty_hits::total        71351                       # number of WritebackDirty hits
system.l3cache.ReadSharedReq_hits::.cpu.data            3                       # number of ReadSharedReq hits
system.l3cache.ReadSharedReq_hits::total            3                       # number of ReadSharedReq hits
system.l3cache.demand_hits::.cpu.data               3                       # number of demand (read+write) hits
system.l3cache.demand_hits::total                   3                       # number of demand (read+write) hits
system.l3cache.overall_hits::.cpu.data              3                       # number of overall hits
system.l3cache.overall_hits::total                  3                       # number of overall hits
system.l3cache.ReadExReq_misses::.cpu.data        75129                       # number of ReadExReq misses
system.l3cache.ReadExReq_misses::total          75129                       # number of ReadExReq misses
system.l3cache.ReadSharedReq_misses::.cpu.inst          588                       # number of ReadSharedReq misses
system.l3cache.ReadSharedReq_misses::.cpu.data          158                       # number of ReadSharedReq misses
system.l3cache.ReadSharedReq_misses::total          746                       # number of ReadSharedReq misses
system.l3cache.demand_misses::.cpu.inst           588                       # number of demand (read+write) misses
system.l3cache.demand_misses::.cpu.data         75287                       # number of demand (read+write) misses
system.l3cache.demand_misses::total             75875                       # number of demand (read+write) misses
system.l3cache.overall_misses::.cpu.inst          588                       # number of overall misses
system.l3cache.overall_misses::.cpu.data        75287                       # number of overall misses
system.l3cache.overall_misses::total            75875                       # number of overall misses
system.l3cache.ReadExReq_miss_latency::.cpu.data   5353740000                       # number of ReadExReq miss cycles
system.l3cache.ReadExReq_miss_latency::total   5353740000                       # number of ReadExReq miss cycles
system.l3cache.ReadSharedReq_miss_latency::.cpu.inst     44497000                       # number of ReadSharedReq miss cycles
system.l3cache.ReadSharedReq_miss_latency::.cpu.data     12050000                       # number of ReadSharedReq miss cycles
system.l3cache.ReadSharedReq_miss_latency::total     56547000                       # number of ReadSharedReq miss cycles
system.l3cache.demand_miss_latency::.cpu.inst     44497000                       # number of demand (read+write) miss cycles
system.l3cache.demand_miss_latency::.cpu.data   5365790000                       # number of demand (read+write) miss cycles
system.l3cache.demand_miss_latency::total   5410287000                       # number of demand (read+write) miss cycles
system.l3cache.overall_miss_latency::.cpu.inst     44497000                       # number of overall miss cycles
system.l3cache.overall_miss_latency::.cpu.data   5365790000                       # number of overall miss cycles
system.l3cache.overall_miss_latency::total   5410287000                       # number of overall miss cycles
system.l3cache.WritebackDirty_accesses::.writebacks        71351                       # number of WritebackDirty accesses(hits+misses)
system.l3cache.WritebackDirty_accesses::total        71351                       # number of WritebackDirty accesses(hits+misses)
system.l3cache.ReadExReq_accesses::.cpu.data        75129                       # number of ReadExReq accesses(hits+misses)
system.l3cache.ReadExReq_accesses::total        75129                       # number of ReadExReq accesses(hits+misses)
system.l3cache.ReadSharedReq_accesses::.cpu.inst          588                       # number of ReadSharedReq accesses(hits+misses)
system.l3cache.ReadSharedReq_accesses::.cpu.data          161                       # number of ReadSharedReq accesses(hits+misses)
system.l3cache.ReadSharedReq_accesses::total          749                       # number of ReadSharedReq accesses(hits+misses)
system.l3cache.demand_accesses::.cpu.inst          588                       # number of demand (read+write) accesses
system.l3cache.demand_accesses::.cpu.data        75290                       # number of demand (read+write) accesses
system.l3cache.demand_accesses::total           75878                       # number of demand (read+write) accesses
system.l3cache.overall_accesses::.cpu.inst          588                       # number of overall (read+write) accesses
system.l3cache.overall_accesses::.cpu.data        75290                       # number of overall (read+write) accesses
system.l3cache.overall_accesses::total          75878                       # number of overall (read+write) accesses
system.l3cache.ReadExReq_miss_rate::.cpu.data            1                       # miss rate for ReadExReq accesses
system.l3cache.ReadExReq_miss_rate::total            1                       # miss rate for ReadExReq accesses
system.l3cache.ReadSharedReq_miss_rate::.cpu.inst            1                       # miss rate for ReadSharedReq accesses
system.l3cache.ReadSharedReq_miss_rate::.cpu.data     0.981366                       # miss rate for ReadSharedReq accesses
system.l3cache.ReadSharedReq_miss_rate::total     0.995995                       # miss rate for ReadSharedReq accesses
system.l3cache.demand_miss_rate::.cpu.inst            1                       # miss rate for demand accesses
system.l3cache.demand_miss_rate::.cpu.data     0.999960                       # miss rate for demand accesses
system.l3cache.demand_miss_rate::total       0.999960                       # miss rate for demand accesses
system.l3cache.overall_miss_rate::.cpu.inst            1                       # miss rate for overall accesses
system.l3cache.overall_miss_rate::.cpu.data     0.999960                       # miss rate for overall accesses
system.l3cache.overall_miss_rate::total      0.999960                       # miss rate for overall accesses
system.l3cache.ReadExReq_avg_miss_latency::.cpu.data 71260.631713                       # average ReadExReq miss latency
system.l3cache.ReadExReq_avg_miss_latency::total 71260.631713                       # average ReadExReq miss latency
system.l3cache.ReadSharedReq_avg_miss_latency::.cpu.inst 75675.170068                       # average ReadSharedReq miss latency
system.l3cache.ReadSharedReq_avg_miss_latency::.cpu.data 76265.822785                       # average ReadSharedReq miss latency
system.l3cache.ReadSharedReq_avg_miss_latency::total 75800.268097                       # average ReadSharedReq miss latency
system.l3cache.demand_avg_miss_latency::.cpu.inst 75675.170068                       # average overall miss latency
system.l3cache.demand_avg_miss_latency::.cpu.data 71271.135787                       # average overall miss latency
system.l3cache.demand_avg_miss_latency::total 71305.265239                       # average overall miss latency
system.l3cache.overall_avg_miss_latency::.cpu.inst 75675.170068                       # average overall miss latency
system.l3cache.overall_avg_miss_latency::.cpu.data 71271.135787                       # average overall miss latency
system.l3cache.overall_avg_miss_latency::total 71305.265239                       # average overall miss latency
system.l3cache.blocked_cycles::no_mshrs             0                       # number of cycles access was blocked
system.l3cache.blocked_cycles::no_targets            0                       # number of cycles access was blocked
system.l3cache.blocked::no_mshrs                    0                       # number of cycles access was blocked
system.l3cache.blocked::no_targets                  0                       # number of cycles access was blocked
system.l3cache.avg_blocked_cycles::no_mshrs          nan                       # average number of cycles each access was blocked
system.l3cache.avg_blocked_cycles::no_targets          nan                       # average number of cycles each access was blocked
system.l3cache.writebacks::.writebacks          42676                       # number of writebacks
system.l3cache.writebacks::total                42676                       # number of writebacks
system.l3cache.ReadExReq_mshr_misses::.cpu.data        75129                       # number of ReadExReq MSHR misses
system.l3cache.ReadExReq_mshr_misses::total        75129                       # number of ReadExReq MSHR misses
system.l3cache.ReadSharedReq_mshr_misses::.cpu.inst          588                       # number of ReadSharedReq MSHR misses
system.l3cache.ReadSharedReq_mshr_misses::.cpu.data          158                       # number of ReadSharedReq MSHR misses
system.l3cache.ReadSharedReq_mshr_misses::total          746                       # number of ReadSharedReq MSHR misses
system.l3cache.demand_mshr_misses::.cpu.inst          588                       # number of demand (read+write) MSHR misses
system.l3cache.demand_mshr_misses::.cpu.data        75287                       # number of demand (read+write) MSHR misses
system.l3cache.demand_mshr_misses::total        75875                       # number of demand (read+write) MSHR misses
system.l3cache.overall_mshr_misses::.cpu.inst          588                       # number of overall MSHR misses
system.l3cache.overall_mshr_misses::.cpu.data        75287                       # number of overall MSHR misses
system.l3cache.overall_mshr_misses::total        75875                       # number of overall MSHR misses
system.l3cache.ReadExReq_mshr_miss_latency::.cpu.data   5203482000                       # number of ReadExReq MSHR miss cycles
system.l3cache.ReadExReq_mshr_miss_latency::total   5203482000                       # number of ReadExReq MSHR miss cycles
system.l3cache.ReadSharedReq_mshr_miss_latency::.cpu.inst     43321000                       # number of ReadSharedReq MSHR miss cycles
system.l3cache.ReadSharedReq_mshr_miss_latency::.cpu.data     11734000                       # number of ReadSharedReq MSHR miss cycles
system.l3cache.ReadSharedReq_mshr_miss_latency::total     55055000                       # number of ReadSharedReq MSHR miss cycles
system.l3cache.demand_mshr_miss_latency::.cpu.inst     43321000                       # number of demand (read+write) MSHR miss cycles
system.l3cache.demand_mshr_miss_latency::.cpu.data   5215216000                       # number of demand (read+write) MSHR miss cycles
system.l3cache.demand_mshr_miss_latency::total   5258537000                       # number of demand (read+write) MSHR miss cycles
system.l3cache.overall_mshr_miss_latency::.cpu.inst     43321000                       # number of overall MSHR miss cycles
system.l3cache.overall_mshr_miss_latency::.cpu.data   5215216000                       # number of overall MSHR miss cycles
system.l3cache.overall_mshr_miss_latency::total   5258537000                       # number of overall MSHR miss cycles
system.l3cache.ReadExReq_mshr_miss_rate::.cpu.data            1                       # mshr miss rate for ReadExReq accesses
system.l3cache.ReadExReq_mshr_miss_rate::total            1                       # mshr miss rate for ReadExReq accesses
system.l3cache.ReadSharedReq_mshr_miss_rate::.cpu.inst            1                       # mshr miss rate for ReadSharedReq accesses
system.l3cache.ReadSharedReq_mshr_miss_rate::.cpu.data     0.981366                       # mshr miss rate for ReadSharedReq accesses
system.l3cache.ReadSharedReq_mshr_miss_rate::total     0.995995                       # mshr miss rate for ReadSharedReq accesses
system.l3cache.demand_mshr_miss_rate::.cpu.inst            1                       # mshr miss rate for demand accesses
system.l3cache.demand_mshr_miss_rate::.cpu.data     0.999960                       # mshr miss rate for demand accesses
system.l3cache.demand_mshr_miss_rate::total     0.999960                       # mshr miss rate for demand accesses
system.l3cache.overall_mshr_miss_rate::.cpu.inst            1                       # mshr miss rate for overall accesses
system.l3cache.overall_mshr_miss_rate::.cpu.data     0.999960                       # mshr miss rate for overall accesses
system.l3cache.overall_mshr_miss_rate::total     0.999960                       # mshr miss rate for overall accesses
system.l3cache.ReadExReq_avg_mshr_miss_latency::.cpu.data 69260.631713                       # average ReadExReq mshr miss latency
system.l3cache.ReadExReq_avg_mshr_miss_latency::total 69260.631713                       # average ReadExReq mshr miss latency
system.l3cache.ReadSharedReq_avg_mshr_miss_latency::.cpu.inst 73675.170068                       # average ReadSharedReq mshr miss latency
system.l3cache.ReadSharedReq_avg_mshr_miss_latency::.cpu.data 74265.822785                       # average ReadSharedReq mshr miss latency
system.l3cache.ReadSharedReq_avg_mshr_miss_latency::total 73800.268097                       # average ReadSharedReq mshr miss latency
system.l3cache.demand_avg_mshr_miss_latency::.cpu.inst 73675.170068                       # average overall mshr miss latency
system.l3cache.demand_avg_mshr_miss_latency::.cpu.data 69271.135787                       # average overall mshr miss latency
system.l3cache.demand_avg_mshr_miss_latency::total 69305.265239                       # average overall mshr miss latency
system.l3cache.overall_avg_mshr_miss_latency::.cpu.inst 73675.170068                       # average overall mshr miss latency
system.l3cache.overall_avg_mshr_miss_latency::.cpu.data 69271.135787                       # average overall mshr miss latency
system.l3cache.overall_avg_mshr_miss_latency::total 69305.265239                       # average overall mshr miss latency
system.l3cache.replacements                     43107                       # number of replacements
system.membus.snoop_filter.tot_requests        118853                       # Total number of requests made to the snoop filter.
system.membus.snoop_filter.hit_single_requests        43001                       # Number of requests hitting in the snoop filter with a single holder of the requested data.
system.membus.snoop_filter.hit_multi_requests            0                       # Number of requests hitting in the snoop filter with multiple (>1) holders of the requested data.
system.membus.snoop_filter.tot_snoops               0                       # Total number of snoops made to the snoop filter.
system.membus.snoop_filter.hit_single_snoops            0                       # Number of snoops hitting in the snoop filter with a single holder of the requested data.
system.membus.snoop_filter.hit_multi_snoops            0                       # Number of snoops hitting in the snoop filter with multiple (>1) holders of the requested data.
system.membus.pwrStateResidencyTicks::UNDEFINED  11209206000                       # Cumulative time (in ticks) in various power states
system.membus.trans_dist::ReadResp                746                       # Transaction distribution
system.membus.trans_dist::WritebackDirty        42676                       # Transaction distribution
system.membus.trans_dist::CleanEvict              302                       # Transaction distribution
system.membus.trans_dist::ReadExReq             75129                       # Transaction distribution
system.membus.trans_dist::ReadExResp            75129                       # Transaction distribution
system.membus.trans_dist::ReadSharedReq           746                       # Transaction distribution
system.membus.pkt_count_system.l3cache.mem_side::system.mem_ctrl.port       194728                       # Packet count per connected master and slave (bytes)
system.membus.pkt_count_system.l3cache.mem_side::total       194728                       # Packet count per connected master and slave (bytes)
system.membus.pkt_count::total                 194728                       # Packet count per connected master and slave (bytes)
system.membus.pkt_size_system.l3cache.mem_side::system.mem_ctrl.port      7587264                       # Cumulative packet size per connected master and slave (bytes)
system.membus.pkt_size_system.l3cache.mem_side::total      7587264                       # Cumulative packet size per connected master and slave (bytes)
system.membus.pkt_size::total                 7587264                       # Cumulative packet size per connected master and slave (bytes)
system.membus.snoops                                0                       # Total snoops (count)
system.membus.snoopTraffic                          0                       # Total snoop traffic (bytes)
system.membus.snoop_fanout::samples             75875                       # Request fanout histogram
system.membus.snoop_fanout::mean                    0                       # Request fanout histogram
system.membus.snoop_fanout::stdev                   0                       # Request fanout histogram
system.membus.snoop_fanout::underflows              0      0.00%      0.00% # Request fanout histogram
system.membus.snoop_fanout::0                   75875    100.00%    100.00% # Request fanout histogram
system.membus.snoop_fanout::1                       0      0.00%    100.00% # Request fanout histogram
system.membus.snoop_fanout::overflows               0      0.00%    100.00% # Request fanout histogram
system.membus.snoop_fanout::min_value               0                       # Request fanout histogram
system.membus.snoop_fanout::max_value               0                       # Request fanout histogram
system.membus.snoop_fanout::total               75875                       # Request fanout histogram
system.membus.reqLayer0.occupancy           144778500                       # Layer occupancy (ticks)
system.membus.reqLayer0.utilization               1.3                       # Layer utilization (%)
system.membus.respLayer0.occupancy          207492000                       # Layer occupancy (ticks)
system.membus.respLayer0.utilization              1.9                       # Layer utilization (%)

---------- End Simulation Statistics   ----------