
---------- Begin Simulation Statistics ----------
sim_seconds                                  0.011233                       # Number of seconds simulated
sim_ticks                                 11233122000                       # Number of ticks simulated
final_tick                                11233122000                       # Number of ticks from beginning of simulation (restored from checkpoints and never reset)
sim_freq                                 1000000000000                       # Frequency of simulated ticks
host_inst_rate                                 383000                       # Simulator instruction rate (inst/s)
host_op_rate                                   651183                       # Simulator op (including micro ops) rate (op/s)
host_tick_rate                              358206281                       # Simulator tick rate (ticks/s)
host_mem_usage                               10373012                       # Number of bytes of host memory used
host_seconds                                    31.36                       # Real time elapsed on the host
sim_insts                                    12010628                       # Number of instructions simulated
sim_ops                                      20420699                       # Number of ops (including micro ops) simulated
system.clk_domain.voltage_domain.voltage            1                       # Voltage in Volts
system.clk_domain.clock                           500                       # Clock period in ticks
system.mem_ctrl.pwrStateResidencyTicks::UNDEFINED  11233122000                       # Cumulative time (in ticks) in various power states
system.mem_ctrl.bytes_read::.cpu.inst           35136                       # Number of bytes read from this memory
system.mem_ctrl.bytes_read::.cpu.data         4818880                       # Number of bytes read from this memory
system.mem_ctrl.bytes_read::total             4854016                       # Number of bytes read from this memory
system.mem_ctrl.bytes_inst_read::.cpu.inst        35136                       # Number of instructions bytes read from this memory
system.mem_ctrl.bytes_inst_read::total          35136                       # Number of instructions bytes read from this memory
system.mem_ctrl.bytes_written::.writebacks      2729472                       # Number of bytes written to this memory
system.mem_ctrl.bytes_written::total          2729472                       # Number of bytes written to this memory
system.mem_ctrl.num_reads::.cpu.inst              549                       # Number of read requests responded to by this memory
system.mem_ctrl.num_reads::.cpu.data            75295                       # Number of read requests responded to by this memory
system.mem_ctrl.num_reads::total                75844                       # Number of read requests responded to by this memory
system.mem_ctrl.num_writes::.writebacks         42648                       # Number of write requests responded to by this memory
system.mem_ctrl.num_writes::total               42648                       # Number of write requests responded to by this memory
system.mem_ctrl.bw_read::.cpu.inst            3127893                       # Total read bandwidth from this memory (bytes/s)
system.mem_ctrl.bw_read::.cpu.data          428988486                       # Total read bandwidth from this memory (bytes/s)
system.mem_ctrl.bw_read::total              432116379                       # Total read bandwidth from this memory (bytes/s)
system.mem_ctrl.bw_inst_read::.cpu.inst       3127893                       # Instruction read bandwidth from this memory (bytes/s)
system.mem_ctrl.bw_inst_read::total           3127893                       # Instruction read bandwidth from this memory (bytes/s)
system.mem_ctrl.bw_write::.writebacks       242984275                       # Write bandwidth from this memory (bytes/s)
system.mem_ctrl.bw_write::total             242984275                       # Write bandwidth from this memory (bytes/s)
system.mem_ctrl.bw_total::.writebacks       242984275                       # Total bandwidth to/from this memory (bytes/s)
system.mem_ctrl.bw_total::.cpu.inst           3127893                       # Total bandwidth to/from this memory (bytes/s)
system.mem_ctrl.bw_total::.cpu.data         428988486                       # Total bandwidth to/from this memory (bytes/s)
system.mem_ctrl.bw_total::total             675100653                       # Total bandwidth to/from this memory (bytes/s)
system.mem_ctrl.avgPriority_.writebacks::samples     42648.00                       # Average QoS priority value for accepted requests
system.mem_ctrl.avgPriority_.cpu.inst::samples       550.00                       # Average QoS priority value for accepted requests
system.mem_ctrl.avgPriority_.cpu.data::samples     75295.00                       # Average QoS priority value for accepted requests
system.mem_ctrl.priorityMinLatency       0.000000018750                       # per QoS priority minimum request to response latency (s)
system.mem_ctrl.priorityMaxLatency       0.000070771500                       # per QoS priority maximum request to response latency (s)
system.mem_ctrl.numReadWriteTurnArounds          2484                       # Number of turnarounds from READ to WRITE
system.mem_ctrl.numWriteReadTurnArounds          2484                       # Number of turnarounds from WRITE to READ
system.mem_ctrl.numStayReadState               193623                       # Number of times bus staying in READ state
system.mem_ctrl.numStayWriteState               40291                       # Number of times bus staying in WRITE state
system.mem_ctrl.readReqs                        75845                       # Number of read requests accepted
system.mem_ctrl.writeReqs                       42648                       # Number of write requests accepted
system.mem_ctrl.readBursts                      75845                       # Number of DRAM read bursts, including those serviced by the write queue
system.mem_ctrl.writeBursts                     42648                       # Number of DRAM write bursts, including those merged in the write queue
system.mem_ctrl.bytesReadDRAM                 4854080                       # Total number of bytes read from DRAM
system.mem_ctrl.bytesReadWrQ                        0                       # Total number of bytes read from write queue
system.mem_ctrl.bytesWritten                  2728256                       # Total number of bytes written to DRAM
system.mem_ctrl.bytesReadSys                  4854080                       # Total read bytes from the system interface side
system.mem_ctrl.bytesWrittenSys               2729472                       # Total written bytes from the system interface side
system.mem_ctrl.servicedByWrQ                       0                       # Number of DRAM read bursts serviced by the write queue
system.mem_ctrl.mergedWrBursts                      0                       # Number of DRAM write bursts merged with an existing one
system.mem_ctrl.neitherReadNorWriteReqs             0                       # Number of requests that are neither read nor write
system.mem_ctrl.perBankRdBursts::0               4762                       # Per bank write bursts
system.mem_ctrl.perBankRdBursts::1               4703                       # Per bank write bursts
system.mem_ctrl.perBankRdBursts::2               4749                       # Per bank write bursts
system.mem_ctrl.perBankRdBursts::3               4746                       # Per bank write bursts
system.mem_ctrl.perBankRdBursts::4               4748                       # Per bank write bursts
system.mem_ctrl.perBankRdBursts::5               4775                       # Per bank write bursts
system.mem_ctrl.perBankRdBursts::6               4775                       # Per bank write bursts
system.mem_ctrl.perBankRdBursts::7               4778                       # Per bank write bursts
system.mem_ctrl.perBankRdBursts::8               4739                       # Per bank write bursts
system.mem_ctrl.perBankRdBursts::9               4767                       # Per bank write bursts
system.mem_ctrl.perBankRdBursts::10              4783                       # Per bank write bursts
system.mem_ctrl.perBankRdBursts::11              4684                       # Per bank write bursts
system.mem_ctrl.perBankRdBursts::12              4717                       # Per bank write bursts
system.mem_ctrl.perBankRdBursts::13              4685                       # Per bank write bursts
system.mem_ctrl.perBankRdBursts::14              4736                       # Per bank write bursts
system.mem_ctrl.perBankRdBursts::15              4698                       # Per bank write bursts
system.mem_ctrl.perBankWrBursts::0               2644                       # Per bank write bursts
system.mem_ctrl.perBankWrBursts::1               2628                       # Per bank write bursts
system.mem_ctrl.perBankWrBursts::2               2691                       # Per bank write bursts
system.mem_ctrl.perBankWrBursts::3               2691                       # Per bank write bursts
system.mem_ctrl.perBankWrBursts::4               2693                       # Per bank write bursts
system.mem_ctrl.perBankWrBursts::5               2692                       # Per bank write bursts
system.mem_ctrl.perBankWrBursts::6               2690                       # Per bank write bursts
system.mem_ctrl.perBankWrBursts::7               2713                       # Per bank write bursts
system.mem_ctrl.perBankWrBursts::8               2688                       # Per bank write bursts
system.mem_ctrl.perBankWrBursts::9               2707                       # Per bank write bursts
system.mem_ctrl.perBankWrBursts::10              2713                       # Per bank write bursts
system.mem_ctrl.perBankWrBursts::11              2628                       # Per bank write bursts
system.mem_ctrl.perBankWrBursts::12              2625                       # Per bank write bursts
system.mem_ctrl.perBankWrBursts::13              2601                       # Per bank write bursts
system.mem_ctrl.perBankWrBursts::14              2609                       # Per bank write bursts
system.mem_ctrl.perBankWrBursts::15              2616                       # Per bank write bursts
system.mem_ctrl.numRdRetry                          0                       # Number of times read queue was full causing retry
system.mem_ctrl.numWrRetry                          0                       # Number of times write queue was full causing retry
system.mem_ctrl.totGap                    11233101500                       # Total gap between requests
system.mem_ctrl.readPktSize::0                      0                       # Read request sizes (log2)
system.mem_ctrl.readPktSize::1                      0                       # Read request sizes (log2)
system.mem_ctrl.readPktSize::2                      0                       # Read request sizes (log2)
system.mem_ctrl.readPktSize::3                      0                       # Read request sizes (log2)
system.mem_ctrl.readPktSize::4                      0                       # Read request sizes (log2)
system.mem_ctrl.readPktSize::5                      0                       # Read request sizes (log2)
system.mem_ctrl.readPktSize::6                  75845                       # Read request sizes (log2)
system.mem_ctrl.writePktSize::0                     0                       # Write request sizes (log2)
system.mem_ctrl.writePktSize::1                     0                       # Write request sizes (log2)
system.mem_ctrl.writePktSize::2                     0                       # Write request sizes (log2)
system.mem_ctrl.writePktSize::3                     0                       # Write request sizes (log2)
system.mem_ctrl.writePktSize::4                     0                       # Write request sizes (log2)
system.mem_ctrl.writePktSize::5                     0                       # Write request sizes (log2)
system.mem_ctrl.writePktSize::6                 42648                       # Write request sizes (log2)
system.mem_ctrl.rdQLenPdf::0                    75532                       # What read queue length does an incoming req see
system.mem_ctrl.rdQLenPdf::1                      227                       # What read queue length does an incoming req see
system.mem_ctrl.rdQLenPdf::2                       61                       # What read queue length does an incoming req see
system.mem_ctrl.rdQLenPdf::3                       20                       # What read queue length does an incoming req see
system.mem_ctrl.rdQLenPdf::4                        4                       # What read queue length does an incoming req see
system.mem_ctrl.rdQLenPdf::5                        1                       # What read queue length does an incoming req see
system.mem_ctrl.rdQLenPdf::6                        0                       # What read queue length does an incoming req see
system.mem_ctrl.rdQLenPdf::7                        0                       # What read queue length does an incoming req see
system.mem_ctrl.rdQLenPdf::8                        0                       # What read queue length does an incoming req see
system.mem_ctrl.rdQLenPdf::9                        0                       # What read queue length does an incoming req see
system.mem_ctrl.rdQLenPdf::10                       0                       # What read queue length does an incoming req see
system.mem_ctrl.rdQLenPdf::11                       0                       # What read queue length does an incoming req see
system.mem_ctrl.rdQLenPdf::12                       0                       # What read queue length does an incoming req see
system.mem_ctrl.rdQLenPdf::13                       0                       # What read queue length does an incoming req see
system.mem_ctrl.rdQLenPdf::14                       0                       # What read queue length does an incoming req see
system.mem_ctrl.rdQLenPdf::15                       0                       # What read queue length does an incoming req see
system.mem_ctrl.rdQLenPdf::16                       0                       # What read queue length does an incoming req see
system.mem_ctrl.rdQLenPdf::17                       0                       # What read queue length does an incoming req see
system.mem_ctrl.rdQLenPdf::18                       0                       # What read queue length does an incoming req see
system.mem_ctrl.rdQLenPdf::19                       0                       # What read queue length does an incoming req see
system.mem_ctrl.rdQLenPdf::20                       0                       # What read queue length does an incoming req see
system.mem_ctrl.rdQLenPdf::21                       0                       # What read queue length does an incoming req see
system.mem_ctrl.rdQLenPdf::22                       0                       # What read queue length does an incoming req see
system.mem_ctrl.rdQLenPdf::23                       0                       # What read queue length does an incoming req see
system.mem_ctrl.rdQLenPdf::24                       0                       # What read queue length does an incoming req see
system.mem_ctrl.rdQLenPdf::25                       0                       # What read queue length does an incoming req see
system.mem_ctrl.rdQLenPdf::26                       0                       # What read queue length does an incoming req see
system.mem_ctrl.rdQLenPdf::27                       0                       # What read queue length does an incoming req see
system.mem_ctrl.rdQLenPdf::28                       0                       # What read queue length does an incoming req see
system.mem_ctrl.rdQLenPdf::29                       0                       # What read queue length does an incoming req see
system.mem_ctrl.rdQLenPdf::30                       0                       # What read queue length does an incoming req see
system.mem_ctrl.rdQLenPdf::31                       0                       # What read queue length does an incoming req see
system.mem_ctrl.wrQLenPdf::0                        1                       # What write queue length does an incoming req see
system.mem_ctrl.wrQLenPdf::1                        1                       # What write queue length does an incoming req see
system.mem_ctrl.wrQLenPdf::2                        1                       # What write queue length does an incoming req see
system.mem_ctrl.wrQLenPdf::3                        1                       # What write queue length does an incoming req see
system.mem_ctrl.wrQLenPdf::4                        1                       # What write queue length does an incoming req see
system.mem_ctrl.wrQLenPdf::5                        1                       # What write queue length does an incoming req see
system.mem_ctrl.wrQLenPdf::6                        1                       # What write queue length does an incoming req see
system.mem_ctrl.wrQLenPdf::7                        1                       # What write queue length does an incoming req see
system.mem_ctrl.wrQLenPdf::8                        1                       # What write queue length does an incoming req see
system.mem_ctrl.wrQLenPdf::9                        1                       # What write queue length does an incoming req see
system.mem_ctrl.wrQLenPdf::10                       1                       # What write queue length does an incoming req see
system.mem_ctrl.wrQLenPdf::11                       1                       # What write queue length does an incoming req see
system.mem_ctrl.wrQLenPdf::12                       1                       # What write queue length does an incoming req see
system.mem_ctrl.wrQLenPdf::13                       1                       # What write queue length does an incoming req see
system.mem_ctrl.wrQLenPdf::14                       1                       # What write queue length does an incoming req see
system.mem_ctrl.wrQLenPdf::15                     488                       # What write queue length does an incoming req see
system.mem_ctrl.wrQLenPdf::16                    2396                       # What write queue length does an incoming req see
system.mem_ctrl.wrQLenPdf::17                    2480                       # What write queue length does an incoming req see
system.mem_ctrl.wrQLenPdf::18                    2482                       # What write queue length does an incoming req see
system.mem_ctrl.wrQLenPdf::19                    2481                       # What write queue length does an incoming req see
system.mem_ctrl.wrQLenPdf::20                    2484                       # What write queue length does an incoming req see
system.mem_ctrl.wrQLenPdf::21                    2484                       # What write queue length does an incoming req see
system.mem_ctrl.wrQLenPdf::22                    2484                       # What write queue length does an incoming req see
system.mem_ctrl.wrQLenPdf::23                    2486                       # What write queue length does an incoming req see
system.mem_ctrl.wrQLenPdf::24                    2484                       # What write queue length does an incoming req see
system.mem_ctrl.wrQLenPdf::25                    2485                       # What write queue length does an incoming req see
system.mem_ctrl.wrQLenPdf::26                    2486                       # What write queue length does an incoming req see
system.mem_ctrl.wrQLenPdf::27                    2484                       # What write queue length does an incoming req see
system.mem_ctrl.wrQLenPdf::28                    2484                       # What write queue length does an incoming req see
system.mem_ctrl.wrQLenPdf::29                    2484                       # What write queue length does an incoming req see
system.mem_ctrl.wrQLenPdf::30                    2487                       # What write queue length does an incoming req see
system.mem_ctrl.wrQLenPdf::31                    2485                       # What write queue length does an incoming req see
system.mem_ctrl.wrQLenPdf::32                    2488                       # What write queue length does an incoming req see
system.mem_ctrl.wrQLenPdf::33                       1                       # What write queue length does an incoming req see
system.mem_ctrl.wrQLenPdf::34                       0                       # What write queue length does an incoming req see
system.mem_ctrl.wrQLenPdf::35                       0                       # What write queue length does an incoming req see
system.mem_ctrl.wrQLenPdf::36                       0                       # What write queue length does an incoming req see
system.mem_ctrl.wrQLenPdf::37                       0                       # What write queue length does an incoming req see
system.mem_ctrl.wrQLenPdf::38                       0                       # What write queue length does an incoming req see
system.mem_ctrl.wrQLenPdf::39                       0                       # What write queue length does an incoming req see
system.mem_ctrl.wrQLenPdf::40                       0                       # What write queue length does an incoming req see
system.mem_ctrl.wrQLenPdf::41                       0                       # What write queue length does an incoming req see
system.mem_ctrl.wrQLenPdf::42                       0                       # What write queue length does an incoming req see
system.mem_ctrl.wrQLenPdf::43                       0                       # What write queue length does an incoming req see
system.mem_ctrl.wrQLenPdf::44                       0                       # What write queue length does an incoming req see
system.mem_ctrl.wrQLenPdf::45                       0                       # What write queue length does an incoming req see
system.mem_ctrl.wrQLenPdf::46                       0                       # What write queue length does an incoming req see
system.mem_ctrl.wrQLenPdf::47                       0                       # What write queue length does an incoming req see
system.mem_ctrl.wrQLenPdf::48                       0                       # What write queue length does an incoming req see
system.mem_ctrl.wrQLenPdf::49                       0                       # What write queue length does an incoming req see
system.mem_ctrl.wrQLenPdf::50                       0                       # What write queue length does an incoming req see
system.mem_ctrl.wrQLenPdf::51                       0                       # What write queue length does an incoming req see
system.mem_ctrl.wrQLenPdf::52                       0                       # What write queue length does an incoming req see
system.mem_ctrl.wrQLenPdf::53                       0                       # What write queue length does an incoming req see
system.mem_ctrl.wrQLenPdf::54                       0                       # What write queue length does an incoming req see
system.mem_ctrl.wrQLenPdf::55                       0                       # What write queue length does an incoming req see
system.mem_ctrl.wrQLenPdf::56                       0                       # What write queue length does an incoming req see
system.mem_ctrl.wrQLenPdf::57                       0                       # What write queue length does an incoming req see
system.mem_ctrl.wrQLenPdf::58                       0                       # What write queue length does an incoming req see
system.mem_ctrl.wrQLenPdf::59                       0                       # What write queue length does an incoming req see
system.mem_ctrl.wrQLenPdf::60                       0                       # What write queue length does an incoming req see
system.mem_ctrl.wrQLenPdf::61                       0                       # What write queue length does an incoming req see
system.mem_ctrl.wrQLenPdf::62                       0                       # What write queue length does an incoming req see
system.mem_ctrl.wrQLenPdf::63                       0                       # What write queue length does an incoming req see
system.mem_ctrl.bytesPerActivate::samples        12602                       # Bytes accessed per row activation
system.mem_ctrl.bytesPerActivate::mean     601.509602                       # Bytes accessed per row activation
system.mem_ctrl.bytesPerActivate::gmean    368.155997                       # Bytes accessed per row activation
system.mem_ctrl.bytesPerActivate::stdev    422.980348                       # Bytes accessed per row activation
system.mem_ctrl.bytesPerActivate::0-127          3221     25.56%     25.56% # Bytes accessed per row activation
system.mem_ctrl.bytesPerActivate::128-255         1014      8.05%     33.61% # Bytes accessed per row activation
system.mem_ctrl.bytesPerActivate::256-383          440      3.49%     37.10% # Bytes accessed per row activation
system.mem_ctrl.bytesPerActivate::384-511          875      6.94%     44.04% # Bytes accessed per row activation
system.mem_ctrl.bytesPerActivate::512-639          321      2.55%     46.59% # Bytes accessed per row activation
system.mem_ctrl.bytesPerActivate::640-767          537      4.26%     50.85% # Bytes accessed per row activation
system.mem_ctrl.bytesPerActivate::768-895          365      2.90%     53.75% # Bytes accessed per row activation
system.mem_ctrl.bytesPerActivate::896-1023          379      3.01%     56.75% # Bytes accessed per row activation
system.mem_ctrl.bytesPerActivate::1024-1151         5450     43.25%    100.00% # Bytes accessed per row activation
system.mem_ctrl.bytesPerActivate::total         12602                       # Bytes accessed per row activation
system.mem_ctrl.rdPerTurnAround::samples         2484                       # Reads before turning the bus around for writes
system.mem_ctrl.rdPerTurnAround::mean       30.532206                       # Reads before turning the bus around for writes
system.mem_ctrl.rdPerTurnAround::gmean      17.264069                       # Reads before turning the bus around for writes
system.mem_ctrl.rdPerTurnAround::stdev     656.696681                       # Reads before turning the bus around for writes
system.mem_ctrl.rdPerTurnAround::0-1023          2483     99.96%     99.96% # Reads before turning the bus around for writes
system.mem_ctrl.rdPerTurnAround::31744-32767            1      0.04%    100.00% # Reads before turning the bus around for writes
system.mem_ctrl.rdPerTurnAround::total           2484                       # Reads before turning the bus around for writes
system.mem_ctrl.wrPerTurnAround::samples         2484                       # Writes before turning the bus around for reads
system.mem_ctrl.wrPerTurnAround::mean       17.161433                       # Writes before turning the bus around for reads
system.mem_ctrl.wrPerTurnAround::gmean      17.155437                       # Writes before turning the bus around for reads
system.mem_ctrl.wrPerTurnAround::stdev       0.455982                       # Writes before turning the bus around for reads
system.mem_ctrl.wrPerTurnAround::16                89      3.58%      3.58% # Writes before turning the bus around for reads
system.mem_ctrl.wrPerTurnAround::17              1906     76.73%     80.31% # Writes before turning the bus around for reads
system.mem_ctrl.wrPerTurnAround::18               488     19.65%     99.96% # Writes before turning the bus around for reads
system.mem_ctrl.wrPerTurnAround::19                 1      0.04%    100.00% # Writes before turning the bus around for reads
system.mem_ctrl.wrPerTurnAround::total           2484                       # Writes before turning the bus around for reads
system.mem_ctrl.masterReadBytes::.cpu.inst        35200                       # Per-master bytes read from memory
system.mem_ctrl.masterReadBytes::.cpu.data      4818880                       # Per-master bytes read from memory
system.mem_ctrl.masterWriteBytes::.writebacks      2728256                       # Per-master bytes write to memory
system.mem_ctrl.masterReadRate::.cpu.inst 3133590.109677434433                       # Per-master bytes read from memory rate (Bytes/sec)
system.mem_ctrl.masterReadRate::.cpu.data 428988486.014840781689                       # Per-master bytes read from memory rate (Bytes/sec)
system.mem_ctrl.masterWriteRate::.writebacks 242876023.246253371239                       # Per-master bytes write to memory rate (Bytes/sec)
system.mem_ctrl.masterReadAccesses::.cpu.inst          550                       # Per-master read serviced memory accesses
system.mem_ctrl.masterReadAccesses::.cpu.data        75295                       # Per-master read serviced memory accesses
system.mem_ctrl.masterWriteAccesses::.writebacks        42648                       # Per-master write serviced memory accesses
system.mem_ctrl.masterReadTotalLat::.cpu.inst     21895500                       # Per-master read total memory access latency
system.mem_ctrl.masterReadTotalLat::.cpu.data   2527163500                       # Per-master read total memory access latency
system.mem_ctrl.masterWriteTotalLat::.writebacks 158203644250                       # Per-master write total memory access latency
system.mem_ctrl.masterReadAvgLat::.cpu.inst     39810.00                       # Per-master read average memory access latency
system.mem_ctrl.masterReadAvgLat::.cpu.data     33563.50                       # Per-master read average memory access latency
system.mem_ctrl.masterWriteAvgLat::.writebacks   3709520.83                       # Per-master write average memory access latency
system.mem_ctrl.totQLat                    1126965250                       # Total ticks spent queuing
system.mem_ctrl.totMemAccLat               2549059000                       # Total ticks spent from burst creation until serviced by the DRAM
system.mem_ctrl.totBusLat                   379225000                       # Total ticks spent in databus transfers
system.mem_ctrl.avgQLat                      14858.79                       # Average queueing delay per DRAM burst
system.mem_ctrl.avgBusLat                     5000.00                       # Average bus latency per DRAM burst
system.mem_ctrl.avgMemAccLat                 33608.79                       # Average memory access latency per DRAM burst
system.mem_ctrl.avgRdBW                        432.12                       # Average DRAM read bandwidth in MiByte/s
system.mem_ctrl.avgWrBW                        242.88                       # Average achieved write bandwidth in MiByte/s
system.mem_ctrl.avgRdBWSys                     432.12                       # Average system read bandwidth in MiByte/s
system.mem_ctrl.avgWrBWSys                     242.98                       # Average system write bandwidth in MiByte/s
system.mem_ctrl.peakBW                       12800.00                       # Theoretical peak bandwidth in MiByte/s
system.mem_ctrl.busUtil                          5.27                       # Data bus utilization in percentage
system.mem_ctrl.busUtilRead                      3.38                       # Data bus utilization in percentage for reads
system.mem_ctrl.busUtilWrite                     1.90                       # Data bus utilization in percentage for writes
system.mem_ctrl.avgRdQLen                        1.00                       # Average read queue length when enqueuing
system.mem_ctrl.avgWrQLen                       14.77                       # Average write queue length when enqueuing
system.mem_ctrl.readRowHits                     68208                       # Number of row buffer hits during reads
system.mem_ctrl.writeRowHits                    37655                       # Number of row buffer hits during writes
system.mem_ctrl.readRowHitRate                  89.93                       # Row buffer hit rate for reads
system.mem_ctrl.writeRowHitRate                 88.29                       # Row buffer hit rate for writes
system.mem_ctrl.avgGap                       94799.71                       # Average gap between requests
system.mem_ctrl.pageHitRate                     89.34                       # Row buffer hit rate, read and write combined
system.mem_ctrl_0.actEnergy                  44989140                       # Energy for activate commands per rank (pJ)
system.mem_ctrl_0.preEnergy                  23897115                       # Energy for precharge commands per rank (pJ)
system.mem_ctrl_0.readEnergy                271577040                       # Energy for read commands per rank (pJ)
system.mem_ctrl_0.writeEnergy               111927240                       # Energy for write commands per rank (pJ)
system.mem_ctrl_0.refreshEnergy          478804560.000000                       # Energy for refresh commands per rank (pJ)
system.mem_ctrl_0.actBackEnergy             678976590                       # Energy for active background per rank (pJ)
system.mem_ctrl_0.preBackEnergy              37044000                       # Energy for precharge background per rank (pJ)
system.mem_ctrl_0.actPowerDownEnergy       1848715770                       # Energy for active power-down per rank (pJ)
system.mem_ctrl_0.prePowerDownEnergy        169560960                       # Energy for precharge power-down per rank (pJ)
system.mem_ctrl_0.selfRefreshEnergy        1260755460                       # Energy for self refresh per rank (pJ)
system.mem_ctrl_0.totalEnergy              4926305595                       # Total energy per rank (pJ)
system.mem_ctrl_0.averagePower             438.551775                       # Core power per rank (mW)
system.mem_ctrl_0.totalIdleTime            9647264750                       # Total Idle time Per DRAM Rank
system.mem_ctrl_0.memoryStateTime::IDLE      23369750                       # Time in different power states
system.mem_ctrl_0.memoryStateTime::REF      202540000                       # Time in different power states
system.mem_ctrl_0.memoryStateTime::SREF    5151756250                       # Time in different power states
system.mem_ctrl_0.memoryStateTime::PRE_PDN    441422250                       # Time in different power states
system.mem_ctrl_0.memoryStateTime::ACT     1359895500                       # Time in different power states
system.mem_ctrl_0.memoryStateTime::ACT_PDN   4054138250                       # Time in different power states
system.mem_ctrl_1.actEnergy                  45053400                       # Energy for activate commands per rank (pJ)
system.mem_ctrl_1.preEnergy                  23927475                       # Energy for precharge commands per rank (pJ)
system.mem_ctrl_1.readEnergy                269956260                       # Energy for read commands per rank (pJ)
system.mem_ctrl_1.writeEnergy               110596140                       # Energy for write commands per rank (pJ)
system.mem_ctrl_1.refreshEnergy          474502080.000000                       # Energy for refresh commands per rank (pJ)
system.mem_ctrl_1.actBackEnergy             670807350                       # Energy for active background per rank (pJ)
system.mem_ctrl_1.preBackEnergy              36324960                       # Energy for precharge background per rank (pJ)
system.mem_ctrl_1.actPowerDownEnergy       1830292800                       # Energy for active power-down per rank (pJ)
system.mem_ctrl_1.prePowerDownEnergy        170491680                       # Energy for precharge power-down per rank (pJ)
system.mem_ctrl_1.selfRefreshEnergy        1274066820                       # Energy for self refresh per rank (pJ)
system.mem_ctrl_1.totalEnergy              4906018965                       # Total energy per rank (pJ)
system.mem_ctrl_1.averagePower             436.745810                       # Core power per rank (mW)
system.mem_ctrl_1.totalIdleTime            9667241500                       # Total Idle time Per DRAM Rank
system.mem_ctrl_1.memoryStateTime::IDLE      23001000                       # Time in different power states
system.mem_ctrl_1.memoryStateTime::REF      200720000                       # Time in different power states
system.mem_ctrl_1.memoryStateTime::SREF    5209652750                       # Time in different power states
system.mem_ctrl_1.memoryStateTime::PRE_PDN    443848250                       # Time in different power states
system.mem_ctrl_1.memoryStateTime::ACT     1342159500                       # Time in different power states
system.mem_ctrl_1.memoryStateTime::ACT_PDN   4013740500                       # Time in different power states
system.pwrStateResidencyTicks::UNDEFINED  11233122000                       # Cumulative time (in ticks) in various power states
system.cpu.branchPred.lookups                 1204401                       # Number of BP lookups
system.cpu.branchPred.condPredicted           1204401                       # Number of conditional branches predicted
system.cpu.branchPred.condIncorrect               933                       # Number of conditional branches incorrect
system.cpu.branchPred.BTBLookups              1203985                       # Number of BTB lookups
system.cpu.branchPred.BTBHits                       0                       # Number of BTB hits
system.cpu.branchPred.BTBCorrect                    0                       # Number of correct BTB predictions (this stat may not work properly.
system.cpu.branchPred.BTBHitPct              0.000000                       # BTB Hit Percentage
system.cpu.branchPred.usedRAS                     327                       # Number of times the RAS was used to get a target.
system.cpu.branchPred.RASInCorrect                154                       # Number of incorrect RAS predictions.
system.cpu.branchPred.indirectLookups         1203985                       # Number of indirect predictor lookups.
system.cpu.branchPred.indirectHits            1200631                       # Number of indirect target hits.
system.cpu.branchPred.indirectMisses             3354                       # Number of indirect misses.
system.cpu.branchPredindirectMispredicted          725                       # Number of mispredicted indirect branches.
system.cpu.dtb.walker.pwrStateResidencyTicks::UNDEFINED  11233122000                       # Cumulative time (in ticks) in various power states
system.cpu.dtb.rdAccesses                     6003114                       # TLB accesses on read requests
system.cpu.dtb.wrAccesses                     2402152                       # TLB accesses on write requests
system.cpu.dtb.rdMisses                            89                       # TLB misses on read requests
system.cpu.dtb.wrMisses                          1201                       # TLB misses on write requests
system.cpu.apic_clk_domain.clock                 8000                       # Clock period in ticks
system.cpu.interrupts.pwrStateResidencyTicks::UNDEFINED  11233122000                       # Cumulative time (in ticks) in various power states
system.cpu.itb.walker.pwrStateResidencyTicks::UNDEFINED  11233122000                       # Cumulative time (in ticks) in various power states
system.cpu.itb.rdAccesses                           0                       # TLB accesses on read requests
system.cpu.itb.wrAccesses                     7212361                       # TLB accesses on write requests
system.cpu.itb.rdMisses                             0                       # TLB misses on read requests
system.cpu.itb.wrMisses                           163                       # TLB misses on write requests
system.cpu.workload.numSyscalls                    13                       # Number of system calls
system.cpu.pwrStateResidencyTicks::ON     11233122000                       # Cumulative time (in ticks) in various power states
system.cpu.numCycles                         22466245                       # number of cpu cycles simulated
system.cpu.numWorkItemsStarted                      0                       # number of work items this cpu started
system.cpu.numWorkItemsCompleted                    0                       # number of work items this cpu completed
system.cpu.fetch.icacheStallCycles              37671                       # Number of cycles fetch is stalled on an Icache miss
system.cpu.fetch.Insts                       12021140                       # Number of instructions fetch has processed
system.cpu.fetch.Branches                     1204401                       # Number of branches that fetch encountered
system.cpu.fetch.predictedBranches            1200958                       # Number of branches that fetch has predicted taken
system.cpu.fetch.Cycles                      22391904                       # Number of cycles fetch has run and was not squashing or blocked
system.cpu.fetch.SquashCycles                    2132                       # Number of cycles fetch has spent squashing
system.cpu.fetch.MiscStallCycles                   94                       # Number of cycles fetch has spent waiting on interrupts, or bad addresses, or out of MSHRs
system.cpu.fetch.PendingTrapStallCycles          1069                       # Number of stall cycles due to pending traps
system.cpu.fetch.PendingQuiesceStallCycles           18                       # Number of stall cycles due to pending quiesce instructions
system.cpu.fetch.CacheLines                   7212245                       # Number of cache lines fetched
system.cpu.fetch.IcacheSquashes                   285                       # Number of outstanding Icache misses that were squashed
system.cpu.fetch.rateDist::samples           22431822                       # Number of instructions fetched each cycle (Total)
system.cpu.fetch.rateDist::mean              0.911254                       # Number of instructions fetched each cycle (Total)
system.cpu.fetch.rateDist::stdev             0.911807                       # Number of instructions fetched each cycle (Total)
system.cpu.fetch.rateDist::underflows               0      0.00%      0.00% # Number of instructions fetched each cycle (Total)
system.cpu.fetch.rateDist::0                 10408517     46.40%     46.40% # Number of instructions fetched each cycle (Total)
system.cpu.fetch.rateDist::1                  3605528     16.07%     62.47% # Number of instructions fetched each cycle (Total)
system.cpu.fetch.rateDist::2                  8417777     37.53%    100.00% # Number of instructions fetched each cycle (Total)
system.cpu.fetch.rateDist::overflows                0      0.00%    100.00% # Number of instructions fetched each cycle (Total)
system.cpu.fetch.rateDist::min_value                0                       # Number of instructions fetched each cycle (Total)
system.cpu.fetch.rateDist::max_value                2                       # Number of instructions fetched each cycle (Total)
system.cpu.fetch.rateDist::total             22431822                       # Number of instructions fetched each cycle (Total)
system.cpu.fetch.branchRate                  0.053609                       # Number of branch fetches per cycle
system.cpu.fetch.rate                        0.535076                       # Number of inst fetches per cycle
system.cpu.decode.IdleCycles                  1015011                       # Number of cycles decode is idle
system.cpu.decode.BlockedCycles              10781533                       # Number of cycles decode is blocked
system.cpu.decode.RunCycles                   9771379                       # Number of cycles decode is running
system.cpu.decode.UnblockCycles                862833                       # Number of cycles decode is unblocking
system.cpu.decode.SquashCycles                   1066                       # Number of cycles decode is squashing
system.cpu.decode.DecodedInsts               20436369                       # Number of instructions handled by decode
system.cpu.decode.SquashedInsts                  1993                       # Number of squashed instructions handled by decode
system.cpu.rename.SquashCycles                   1066                       # Number of cycles rename is squashing
system.cpu.rename.IdleCycles                  1467006                       # Number of cycles rename is idle
system.cpu.rename.BlockCycles                    5303                       # Number of cycles rename is blocking
system.cpu.rename.serializeStallCycles           1193                       # count of cycles rename stalled for serializing inst
system.cpu.rename.RunCycles                  10182184                       # Number of cycles rename is running
system.cpu.rename.UnblockCycles              10775070                       # Number of cycles rename is unblocking
system.cpu.rename.RenamedInsts               20434084                       # Number of instructions processed by rename
system.cpu.rename.SquashedInsts                  1011                       # Number of squashed instructions processed by rename
system.cpu.rename.ROBFullEvents                    15                       # Number of times rename has blocked due to ROB full
system.cpu.rename.IQFullEvents                 150067                       # Number of times rename has blocked due to IQ full
system.cpu.rename.LQFullEvents                     53                       # Number of times rename has blocked due to LQ full
system.cpu.rename.SQFullEvents               10174752                       # Number of times rename has blocked due to SQ full
system.cpu.rename.FullRegisterEvents               18                       # Number of times there has been no free registers
system.cpu.rename.RenamedOperands            24037373                       # Number of destination operands rename has renamed
system.cpu.rename.RenameLookups              50484355                       # Number of register rename lookups that rename has made
system.cpu.rename.int_rename_lookups         33647754                       # Number of integer rename lookups
system.cpu.rename.fp_rename_lookups              4029                       # Number of floating rename lookups
system.cpu.rename.CommittedMaps              24022692                       # Number of HB maps that are committed
system.cpu.rename.UndoneMaps                    14681                       # Number of HB maps that are undone due to squashing
system.cpu.rename.serializingInsts                 24                       # count of serializing insts renamed
system.cpu.rename.tempSerializingInsts             22                       # count of temporary serializing insts renamed
system.cpu.rename.skidInsts                   1125719                       # count of insts added to the skid buffer
system.cpu.memDep0.insertedLoads              6003800                       # Number of loads inserted to the mem dependence unit.
system.cpu.memDep0.insertedStores             2402626                       # Number of stores inserted to the mem dependence unit.
system.cpu.memDep0.conflictingLoads           4237169                       # Number of conflicting loads.
system.cpu.memDep0.conflictingStores           862342                       # Number of conflicting stores.
system.cpu.iq.iqInstsAdded                   20431802                       # Number of instructions added to the IQ (excludes non-spec)
system.cpu.iq.iqNonSpecInstsAdded                  91                       # Number of non-speculative instructions added to the IQ
system.cpu.iq.iqInstsIssued                  20428976                       # Number of instructions issued
system.cpu.iq.iqSquashedInstsIssued               262                       # Number of squashed instructions issued
system.cpu.iq.iqSquashedInstsExamined           11193                       # Number of squashed instructions iterated over during squash; mainly for profiling
system.cpu.iq.iqSquashedOperandsExamined        13054                       # Number of squashed operands that are examined and possibly removed from graph
system.cpu.iq.iqSquashedNonSpecRemoved             60                       # Number of squashed non-spec instructions that were removed
system.cpu.iq.issued_per_cycle::samples      22431822                       # Number of insts issued each cycle
system.cpu.iq.issued_per_cycle::mean         0.910714                       # Number of insts issued each cycle
system.cpu.iq.issued_per_cycle::stdev        0.852948                       # Number of insts issued each cycle
system.cpu.iq.issued_per_cycle::underflows            0      0.00%      0.00% # Number of insts issued each cycle
system.cpu.iq.issued_per_cycle::0             9250631     41.24%     41.24% # Number of insts issued each cycle
system.cpu.iq.issued_per_cycle::1             5933406     26.45%     67.69% # Number of insts issued each cycle
system.cpu.iq.issued_per_cycle::2             7247785     32.31%    100.00% # Number of insts issued each cycle
system.cpu.iq.issued_per_cycle::overflows            0      0.00%    100.00% # Number of insts issued each cycle
system.cpu.iq.issued_per_cycle::min_value            0                       # Number of insts issued each cycle
system.cpu.iq.issued_per_cycle::max_value            2                       # Number of insts issued each cycle
system.cpu.iq.issued_per_cycle::total        22431822                       # Number of insts issued each cycle
system.cpu.iq.fu_full::No_OpClass                   0      0.00%      0.00% # attempts to use FU when none available
system.cpu.iq.fu_full::IntAlu                       0      0.00%      0.00% # attempts to use FU when none available
system.cpu.iq.fu_full::IntMult                      0      0.00%      0.00% # attempts to use FU when none available
system.cpu.iq.fu_full::IntDiv                       0      0.00%      0.00% # attempts to use FU when none available
system.cpu.iq.fu_full::FloatAdd                     0      0.00%      0.00% # attempts to use FU when none available
system.cpu.iq.fu_full::FloatCmp                     0      0.00%      0.00% # attempts to use FU when none available
system.cpu.iq.fu_full::FloatCvt                     0      0.00%      0.00% # attempts to use FU when none available
system.cpu.iq.fu_full::FloatMult                    0      0.00%      0.00% # attempts to use FU when none available
system.cpu.iq.fu_full::FloatMultAcc                 0      0.00%      0.00% # attempts to use FU when none available
system.cpu.iq.fu_full::FloatDiv                     0      0.00%      0.00% # attempts to use FU when none available
system.cpu.iq.fu_full::FloatMisc                    0      0.00%      0.00% # attempts to use FU when none available
system.cpu.iq.fu_full::FloatSqrt                    0      0.00%      0.00% # attempts to use FU when none available
system.cpu.iq.fu_full::SimdAdd                    246      0.01%      0.01% # attempts to use FU when none available
system.cpu.iq.fu_full::SimdAddAcc                   0      0.00%      0.01% # attempts to use FU when none available
system.cpu.iq.fu_full::SimdAlu                     60      0.00%      0.01% # attempts to use FU when none available
system.cpu.iq.fu_full::SimdCmp                      0      0.00%      0.01% # attempts to use FU when none available
system.cpu.iq.fu_full::SimdCvt                     24      0.00%      0.01% # attempts to use FU when none available
system.cpu.iq.fu_full::SimdMisc                   117      0.00%      0.01% # attempts to use FU when none available
system.cpu.iq.fu_full::SimdMult                     0      0.00%      0.01% # attempts to use FU when none available
system.cpu.iq.fu_full::SimdMultAcc                  0      0.00%      0.01% # attempts to use FU when none available
system.cpu.iq.fu_full::SimdShift                  122      0.00%      0.02% # attempts to use FU when none available
system.cpu.iq.fu_full::SimdShiftAcc                 0      0.00%      0.02% # attempts to use FU when none available
system.cpu.iq.fu_full::SimdSqrt                     0      0.00%      0.02% # attempts to use FU when none available
system.cpu.iq.fu_full::SimdFloatAdd                 0      0.00%      0.02% # attempts to use FU when none available
system.cpu.iq.fu_full::SimdFloatAlu                 0      0.00%      0.02% # attempts to use FU when none available
system.cpu.iq.fu_full::SimdFloatCmp                 0      0.00%      0.02% # attempts to use FU when none available
system.cpu.iq.fu_full::SimdFloatCvt                 0      0.00%      0.02% # attempts to use FU when none available
system.cpu.iq.fu_full::SimdFloatDiv                 0      0.00%      0.02% # attempts to use FU when none available
system.cpu.iq.fu_full::SimdFloatMisc                0      0.00%      0.02% # attempts to use FU when none available
system.cpu.iq.fu_full::SimdFloatMult                0      0.00%      0.02% # attempts to use FU when none available
system.cpu.iq.fu_full::SimdFloatMultAcc             0      0.00%      0.02% # attempts to use FU when none available
system.cpu.iq.fu_full::SimdFloatSqrt                0      0.00%      0.02% # attempts to use FU when none available
system.cpu.iq.fu_full::SimdAes                      0      0.00%      0.02% # attempts to use FU when none available
system.cpu.iq.fu_full::SimdAesMix                   0      0.00%      0.02% # attempts to use FU when none available
system.cpu.iq.fu_full::SimdSha1Hash                 0      0.00%      0.02% # attempts to use FU when none available
system.cpu.iq.fu_full::SimdSha1Hash2                0      0.00%      0.02% # attempts to use FU when none available
system.cpu.iq.fu_full::SimdSha256Hash               0      0.00%      0.02% # attempts to use FU when none available
system.cpu.iq.fu_full::SimdSha256Hash2              0      0.00%      0.02% # attempts to use FU when none available
system.cpu.iq.fu_full::SimdShaSigma2                0      0.00%      0.02% # attempts to use FU when none available
system.cpu.iq.fu_full::SimdShaSigma3                0      0.00%      0.02% # attempts to use FU when none available
system.cpu.iq.fu_full::MemRead                3750359     99.98%    100.00% # attempts to use FU when none available
system.cpu.iq.fu_full::MemWrite                   140      0.00%    100.00% # attempts to use FU when none available
system.cpu.iq.fu_full::FloatMemRead                 0      0.00%    100.00% # attempts to use FU when none available
system.cpu.iq.fu_full::FloatMemWrite                0      0.00%    100.00% # attempts to use FU when none available
system.cpu.iq.fu_full::IprAccess                    0      0.00%    100.00% # attempts to use FU when none available
system.cpu.iq.fu_full::InstPrefetch                 0      0.00%    100.00% # attempts to use FU when none available
system.cpu.iq.FU_type_0::No_OpClass               352      0.00%      0.00% # Type of FU issued
system.cpu.iq.FU_type_0::IntAlu              12021848     58.85%     58.85% # Type of FU issued
system.cpu.iq.FU_type_0::IntMult                   11      0.00%     58.85% # Type of FU issued
system.cpu.iq.FU_type_0::IntDiv                    31      0.00%     58.85% # Type of FU issued
system.cpu.iq.FU_type_0::FloatAdd                  12      0.00%     58.85% # Type of FU issued
system.cpu.iq.FU_type_0::FloatCmp                   0      0.00%     58.85% # Type of FU issued
system.cpu.iq.FU_type_0::FloatCvt                   0      0.00%     58.85% # Type of FU issued
system.cpu.iq.FU_type_0::FloatMult                  0      0.00%     58.85% # Type of FU issued
system.cpu.iq.FU_type_0::FloatMultAcc               0      0.00%     58.85% # Type of FU issued
system.cpu.iq.FU_type_0::FloatDiv                   0      0.00%     58.85% # Type of FU issued
system.cpu.iq.FU_type_0::FloatMisc                  0      0.00%     58.85% # Type of FU issued
system.cpu.iq.FU_type_0::FloatSqrt                  0      0.00%     58.85% # Type of FU issued
system.cpu.iq.FU_type_0::SimdAdd                  375      0.00%     58.85% # Type of FU issued
system.cpu.iq.FU_type_0::SimdAddAcc                 0      0.00%     58.85% # Type of FU issued
system.cpu.iq.FU_type_0::SimdAlu                   88      0.00%     58.85% # Type of FU issued
system.cpu.iq.FU_type_0::SimdCmp                    0      0.00%     58.85% # Type of FU issued
system.cpu.iq.FU_type_0::SimdCvt                  132      0.00%     58.85% # Type of FU issued
system.cpu.iq.FU_type_0::SimdMisc                 240      0.00%     58.85% # Type of FU issued
system.cpu.iq.FU_type_0::SimdMult                   0      0.00%     58.85% # Type of FU issued
system.cpu.iq.FU_type_0::SimdMultAcc                0      0.00%     58.85% # Type of FU issued
system.cpu.iq.FU_type_0::SimdShift                186      0.00%     58.85% # Type of FU issued
system.cpu.iq.FU_type_0::SimdShiftAcc               0      0.00%     58.85% # Type of FU issued
system.cpu.iq.FU_type_0::SimdSqrt                   0      0.00%     58.85% # Type of FU issued
system.cpu.iq.FU_type_0::SimdFloatAdd               0      0.00%     58.85% # Type of FU issued
system.cpu.iq.FU_type_0::SimdFloatAlu               0      0.00%     58.85% # Type of FU issued
system.cpu.iq.FU_type_0::SimdFloatCmp               0      0.00%     58.85% # Type of FU issued
system.cpu.iq.FU_type_0::SimdFloatCvt               0      0.00%     58.85% # Type of FU issued
system.cpu.iq.FU_type_0::SimdFloatDiv               0      0.00%     58.85% # Type of FU issued
system.cpu.iq.FU_type_0::SimdFloatMisc              0      0.00%     58.85% # Type of FU issued
system.cpu.iq.FU_type_0::SimdFloatMult              0      0.00%     58.85% # Type of FU issued
system.cpu.iq.FU_type_0::SimdFloatMultAcc            0      0.00%     58.85% # Type of FU issued
system.cpu.iq.FU_type_0::SimdFloatSqrt              0      0.00%     58.85% # Type of FU issued
system.cpu.iq.FU_type_0::SimdAes                    0      0.00%     58.85% # Type of FU issued
system.cpu.iq.FU_type_0::SimdAesMix                 0      0.00%     58.85% # Type of FU issued
system.cpu.iq.FU_type_0::SimdSha1Hash               0      0.00%     58.85% # Type of FU issued
system.cpu.iq.FU_type_0::SimdSha1Hash2              0      0.00%     58.85% # Type of FU issued
system.cpu.iq.FU_type_0::SimdSha256Hash             0      0.00%     58.85% # Type of FU issued
system.cpu.iq.FU_type_0::SimdSha256Hash2            0      0.00%     58.85% # Type of FU issued
system.cpu.iq.FU_type_0::SimdShaSigma2              0      0.00%     58.85% # Type of FU issued
system.cpu.iq.FU_type_0::SimdShaSigma3              0      0.00%     58.85% # Type of FU issued
system.cpu.iq.FU_type_0::MemRead              6003316     29.39%     88.24% # Type of FU issued
system.cpu.iq.FU_type_0::MemWrite             2401861     11.76%    100.00% # Type of FU issued
system.cpu.iq.FU_type_0::FloatMemRead              86      0.00%    100.00% # Type of FU issued
system.cpu.iq.FU_type_0::FloatMemWrite            438      0.00%    100.00% # Type of FU issued
system.cpu.iq.FU_type_0::IprAccess                  0      0.00%    100.00% # Type of FU issued
system.cpu.iq.FU_type_0::InstPrefetch               0      0.00%    100.00% # Type of FU issued
system.cpu.iq.FU_type_0::total               20428976                       # Type of FU issued
system.cpu.iq.rate                           0.909319                       # Inst issue rate
system.cpu.iq.fu_busy_cnt                     3751068                       # FU busy when requested
system.cpu.iq.fu_busy_rate                   0.183615                       # FU busy rate (busy events/executed inst)
system.cpu.iq.int_inst_queue_reads           67036365                       # Number of integer instruction queue reads
system.cpu.iq.int_inst_queue_writes          20440969                       # Number of integer instruction queue writes
system.cpu.iq.int_inst_queue_wakeup_accesses     20424431                       # Number of integer instruction queue wakeup accesses
system.cpu.iq.fp_inst_queue_reads                4739                       # Number of floating instruction queue reads
system.cpu.iq.fp_inst_queue_writes               2161                       # Number of floating instruction queue writes
system.cpu.iq.fp_inst_queue_wakeup_accesses         2057                       # Number of floating instruction queue wakeup accesses
system.cpu.iq.vec_inst_queue_reads                  0                       # Number of vector instruction queue reads
system.cpu.iq.vec_inst_queue_writes                 0                       # Number of vector instruction queue writes
system.cpu.iq.vec_inst_queue_wakeup_accesses            0                       # Number of vector instruction queue wakeup accesses
system.cpu.iq.int_alu_accesses               24177039                       # Number of integer alu accesses
system.cpu.iq.fp_alu_accesses                    2653                       # Number of floating point alu accesses
system.cpu.iq.vec_alu_accesses                      0                       # Number of vector alu accesses
system.cpu.iew.lsq.thread0.forwLoads          4800112                       # Number of loads that had data forwarded from stores
system.cpu.iew.lsq.thread0.invAddrLoads             0                       # Number of loads ignored due to an invalid address
system.cpu.iew.lsq.thread0.squashedLoads         1508                       # Number of loads squashed
system.cpu.iew.lsq.thread0.ignoredResponses            8                       # Number of memory responses ignored because the instruction is squashed
system.cpu.iew.lsq.thread0.memOrderViolation           44                       # Number of memory ordering violations
system.cpu.iew.lsq.thread0.squashedStores          790                       # Number of stores squashed
system.cpu.iew.lsq.thread0.invAddrSwpfs             0                       # Number of software prefetches ignored due to an invalid address
system.cpu.iew.lsq.thread0.blockedLoads             0                       # Number of blocked loads due to partial load-store forwarding
system.cpu.iew.lsq.thread0.rescheduledLoads            0                       # Number of loads that were rescheduled
system.cpu.iew.lsq.thread0.cacheBlocked             0                       # Number of times an access to memory failed due to the cache being blocked
system.cpu.iew.iewIdleCycles                        0                       # Number of cycles IEW is idle
system.cpu.iew.iewSquashCycles                   1066                       # Number of cycles IEW is squashing
system.cpu.iew.iewBlockCycles                    1562                       # Number of cycles IEW is blocking
system.cpu.iew.iewUnblockCycles                  1843                       # Number of cycles IEW is unblocking
system.cpu.iew.iewDispatchedInsts            20431893                       # Number of instructions dispatched to IQ
system.cpu.iew.iewDispSquashedInsts               926                       # Number of squashed instructions skipped by dispatch
system.cpu.iew.iewDispLoadInsts               6003800                       # Number of dispatched load instructions
system.cpu.iew.iewDispStoreInsts              2402626                       # Number of dispatched store instructions
system.cpu.iew.iewDispNonSpecInsts                 43                       # Number of dispatched non-speculative instructions
system.cpu.iew.iewIQFullEvents                     15                       # Number of times the IQ has become full, causing a stall
system.cpu.iew.iewLSQFullEvents                  1815                       # Number of times the LSQ has become full, causing a stall
system.cpu.iew.memOrderViolationEvents             44                       # Number of memory order violations
system.cpu.iew.predictedTakenIncorrect            186                       # Number of branches that were predicted taken incorrectly
system.cpu.iew.predictedNotTakenIncorrect          960                       # Number of branches that were predicted not taken incorrectly
system.cpu.iew.branchMispredicts                 1146                       # Number of branch mispredicts detected at execute
system.cpu.iew.iewExecutedInsts              20426992                       # Number of executed instructions
system.cpu.iew.iewExecLoadInsts               6003107                       # Number of load instructions executed
system.cpu.iew.iewExecSquashedInsts              1984                       # Number of squashed instructions skipped in execute
system.cpu.iew.exec_swp                             0                       # number of swp insts executed
system.cpu.iew.exec_nop                             0                       # number of nop insts executed
system.cpu.iew.exec_refs                      8405259                       # number of memory reference insts executed
system.cpu.iew.exec_branches                  1202567                       # Number of branches executed
system.cpu.iew.exec_stores                    2402152                       # Number of stores executed
system.cpu.iew.exec_rate                     0.909230                       # Inst execution rate
system.cpu.iew.wb_sent                       20426724                       # cumulative count of insts sent to commit
system.cpu.iew.wb_count                      20426488                       # cumulative count of insts written-back
system.cpu.iew.wb_producers                  16555347                       # num instructions producing a value
system.cpu.iew.wb_consumers                  18851275                       # num instructions consuming a value
system.cpu.iew.wb_rate                       0.909208                       # insts written-back per cycle
system.cpu.iew.wb_fanout                     0.878208                       # average fanout of values written-back
system.cpu.commit.commitSquashedInsts           10054                       # The number of squashed insts skipped by commit
system.cpu.commit.commitNonSpecStalls              31                       # The number of times commit has been forced to stall to communicate backwards
system.cpu.commit.branchMispredicts              1023                       # The number of times a branch was mispredicted
system.cpu.commit.committed_per_cycle::samples     22430526                       # Number of insts commited each cycle
system.cpu.commit.committed_per_cycle::mean     0.910398                       # Number of insts commited each cycle
system.cpu.commit.committed_per_cycle::stdev     0.917211                       # Number of insts commited each cycle
system.cpu.commit.committed_per_cycle::underflows            0      0.00%      0.00% # Number of insts commited each cycle
system.cpu.commit.committed_per_cycle::0     10530093     46.95%     46.95% # Number of insts commited each cycle
system.cpu.commit.committed_per_cycle::1      3380167     15.07%     62.01% # Number of insts commited each cycle
system.cpu.commit.committed_per_cycle::2      8520266     37.99%    100.00% # Number of insts commited each cycle
system.cpu.commit.committed_per_cycle::overflows            0      0.00%    100.00% # Number of insts commited each cycle
system.cpu.commit.committed_per_cycle::min_value            0                       # Number of insts commited each cycle
system.cpu.commit.committed_per_cycle::max_value            2                       # Number of insts commited each cycle
system.cpu.commit.committed_per_cycle::total     22430526                       # Number of insts commited each cycle
system.cpu.commit.committedInsts             12010628                       # Number of instructions committed
system.cpu.commit.committedOps               20420699                       # Number of ops (including micro ops) committed
system.cpu.commit.swp_count                         0                       # Number of s/w prefetches committed
system.cpu.commit.refs                        8404128                       # Number of memory references committed
system.cpu.commit.loads                       6002292                       # Number of loads committed
system.cpu.commit.membars                          12                       # Number of memory barriers committed
system.cpu.commit.branches                    1202191                       # Number of branches committed
system.cpu.commit.vec_insts                         0                       # Number of committed Vector instructions.
system.cpu.commit.fp_insts                       2027                       # Number of committed floating point instructions.
system.cpu.commit.int_insts                  20419098                       # Number of committed integer instructions.
system.cpu.commit.function_calls                  190                       # Number of function calls committed.
system.cpu.commit.op_class_0::No_OpClass          108      0.00%      0.00% # Class of committed instruction
system.cpu.commit.op_class_0::IntAlu         12015404     58.84%     58.84% # Class of committed instruction
system.cpu.commit.op_class_0::IntMult              11      0.00%     58.84% # Class of committed instruction
system.cpu.commit.op_class_0::IntDiv               28      0.00%     58.84% # Class of committed instruction
system.cpu.commit.op_class_0::FloatAdd             12      0.00%     58.84% # Class of committed instruction
system.cpu.commit.op_class_0::FloatCmp              0      0.00%     58.84% # Class of committed instruction
system.cpu.commit.op_class_0::FloatCvt              0      0.00%     58.84% # Class of committed instruction
system.cpu.commit.op_class_0::FloatMult             0      0.00%     58.84% # Class of committed instruction
system.cpu.commit.op_class_0::FloatMultAcc            0      0.00%     58.84% # Class of committed instruction
system.cpu.commit.op_class_0::FloatDiv              0      0.00%     58.84% # Class of committed instruction
system.cpu.commit.op_class_0::FloatMisc             0      0.00%     58.84% # Class of committed instruction
system.cpu.commit.op_class_0::FloatSqrt             0      0.00%     58.84% # Class of committed instruction
system.cpu.commit.op_class_0::SimdAdd             374      0.00%     58.84% # Class of committed instruction
system.cpu.commit.op_class_0::SimdAddAcc            0      0.00%     58.84% # Class of committed instruction
system.cpu.commit.op_class_0::SimdAlu              82      0.00%     58.84% # Class of committed instruction
system.cpu.commit.op_class_0::SimdCmp               0      0.00%     58.84% # Class of committed instruction
system.cpu.commit.op_class_0::SimdCvt             128      0.00%     58.84% # Class of committed instruction
system.cpu.commit.op_class_0::SimdMisc            238      0.00%     58.84% # Class of committed instruction
system.cpu.commit.op_class_0::SimdMult              0      0.00%     58.84% # Class of committed instruction
system.cpu.commit.op_class_0::SimdMultAcc            0      0.00%     58.84% # Class of committed instruction
system.cpu.commit.op_class_0::SimdShift           186      0.00%     58.85% # Class of committed instruction
system.cpu.commit.op_class_0::SimdShiftAcc            0      0.00%     58.85% # Class of committed instruction
system.cpu.commit.op_class_0::SimdSqrt              0      0.00%     58.85% # Class of committed instruction
system.cpu.commit.op_class_0::SimdFloatAdd            0      0.00%     58.85% # Class of committed instruction
system.cpu.commit.op_class_0::SimdFloatAlu            0      0.00%     58.85% # Class of committed instruction
system.cpu.commit.op_class_0::SimdFloatCmp            0      0.00%     58.85% # Class of committed instruction
system.cpu.commit.op_class_0::SimdFloatCvt            0      0.00%     58.85% # Class of committed instruction
system.cpu.commit.op_class_0::SimdFloatDiv            0      0.00%     58.85% # Class of committed instruction
system.cpu.commit.op_class_0::SimdFloatMisc            0      0.00%     58.85% # Class of committed instruction
system.cpu.commit.op_class_0::SimdFloatMult            0      0.00%     58.85% # Class of committed instruction
system.cpu.commit.op_class_0::SimdFloatMultAcc            0      0.00%     58.85% # Class of committed instruction
system.cpu.commit.op_class_0::SimdFloatSqrt            0      0.00%     58.85% # Class of committed instruction
system.cpu.commit.op_class_0::SimdAes               0      0.00%     58.85% # Class of committed instruction
system.cpu.commit.op_class_0::SimdAesMix            0      0.00%     58.85% # Class of committed instruction
system.cpu.commit.op_class_0::SimdSha1Hash            0      0.00%     58.85% # Class of committed instruction
system.cpu.commit.op_class_0::SimdSha1Hash2            0      0.00%     58.85% # Class of committed instruction
system.cpu.commit.op_class_0::SimdSha256Hash            0      0.00%     58.85% # Class of committed instruction
system.cpu.commit.op_class_0::SimdSha256Hash2            0      0.00%     58.85% # Class of committed instruction
system.cpu.commit.op_class_0::SimdShaSigma2            0      0.00%     58.85% # Class of committed instruction
system.cpu.commit.op_class_0::SimdShaSigma3            0      0.00%     58.85% # Class of committed instruction
system.cpu.commit.op_class_0::MemRead         6002224     29.39%     88.24% # Class of committed instruction
system.cpu.commit.op_class_0::MemWrite        2401419     11.76%    100.00% # Class of committed instruction
system.cpu.commit.op_class_0::FloatMemRead           68      0.00%    100.00% # Class of committed instruction
system.cpu.commit.op_class_0::FloatMemWrite          417      0.00%    100.00% # Class of committed instruction
system.cpu.commit.op_class_0::IprAccess             0      0.00%    100.00% # Class of committed instruction
system.cpu.commit.op_class_0::InstPrefetch            0      0.00%    100.00% # Class of committed instruction
system.cpu.commit.op_class_0::total          20420699                       # Class of committed instruction
system.cpu.commit.bw_lim_events               8520266                       # number cycles where commit BW limit reached
system.cpu.rob.rob_reads                     34341013                       # The number of ROB reads
system.cpu.rob.rob_writes                    40862802                       # The number of ROB writes
system.cpu.timesIdled                             374                       # Number of times that the entire CPU went into an idle state and unscheduled itself
system.cpu.idleCycles                           34423                       # Total number of cycles that the CPU has spent unscheduled due to idling
system.cpu.committedInsts                    12010628                       # Number of Instructions Simulated
system.cpu.committedOps                      20420699                       # Number of Ops (including micro ops) Simulated
system.cpu.cpi                               1.870530                       # CPI: Cycles Per Instruction
system.cpu.cpi_total                         1.870530                       # CPI: Total CPI of All Threads
system.cpu.ipc                               0.534608                       # IPC: Instructions Per Cycle
system.cpu.ipc_total                         0.534608                       # IPC: Total IPC of All Threads
system.cpu.int_regfile_reads                 33635850                       # number of integer regfile reads
system.cpu.int_regfile_writes                16820110                       # number of integer regfile writes
system.cpu.fp_regfile_reads                      3956                       # number of floating regfile reads
system.cpu.fp_regfile_writes                     1566                       # number of floating regfile writes
system.cpu.cc_regfile_reads                   6012499                       # number of cc regfile reads
system.cpu.cc_regfile_writes                  7207371                       # number of cc regfile writes
system.cpu.misc_regfile_reads                10811471                       # number of misc regfile reads
system.cpu.dcache.tags.pwrStateResidencyTicks::UNDEFINED  11233122000                       # Cumulative time (in ticks) in various power states
system.cpu.dcache.tags.tagsinuse           255.512030                       # Cycle average of tags in use
system.cpu.dcache.tags.total_refs             3604642                       # Total number of references to valid blocks.
system.cpu.dcache.tags.sampled_refs             75306                       # Sample count of references to valid blocks.
system.cpu.dcache.tags.avg_refs             47.866598                       # Average number of references to valid blocks.
system.cpu.dcache.tags.warmup_cycle            170000                       # Cycle when the warmup percentage was hit.
system.cpu.dcache.tags.occ_blocks::.cpu.data   255.512030                       # Average occupied blocks per requestor
system.cpu.dcache.tags.occ_percent::.cpu.data     0.998094                       # Average percentage of cache occupancy
system.cpu.dcache.tags.occ_percent::total     0.998094                       # Average percentage of cache occupancy
system.cpu.dcache.tags.occ_task_id_blocks::1024          256                       # Occupied blocks per task id
system.cpu.dcache.tags.age_task_id_blocks_1024::0           29                       # Occupied blocks per task id
system.cpu.dcache.tags.age_task_id_blocks_1024::1          226                       # Occupied blocks per task id
system.cpu.dcache.tags.age_task_id_blocks_1024::4            1                       # Occupied blocks per task id
system.cpu.dcache.tags.occ_task_id_percent::1024            1                       # Percentage of cache occupancy per task id
system.cpu.dcache.tags.tag_accesses          28913546                       # Number of tag accesses
system.cpu.dcache.tags.data_accesses         28913546                       # Number of data accesses
system.cpu.dcache.pwrStateResidencyTicks::UNDEFINED  11233122000                       # Cumulative time (in ticks) in various power states
system.cpu.dcache.ReadReq_hits::.cpu.data      1202633                       # number of ReadReq hits
system.cpu.dcache.ReadReq_hits::total         1202633                       # number of ReadReq hits
system.cpu.dcache.WriteReq_hits::.cpu.data      2326703                       # number of WriteReq hits
system.cpu.dcache.WriteReq_hits::total        2326703                       # number of WriteReq hits
system.cpu.dcache.demand_hits::.cpu.data      3529336                       # number of demand (read+write) hits
system.cpu.dcache.demand_hits::total          3529336                       # number of demand (read+write) hits
system.cpu.dcache.overall_hits::.cpu.data      3529336                       # number of overall hits
system.cpu.dcache.overall_hits::total         3529336                       # number of overall hits
system.cpu.dcache.ReadReq_misses::.cpu.data          311                       # number of ReadReq misses
system.cpu.dcache.ReadReq_misses::total           311                       # number of ReadReq misses
system.cpu.dcache.WriteReq_misses::.cpu.data        75133                       # number of WriteReq misses
system.cpu.dcache.WriteReq_misses::total        75133                       # number of WriteReq misses
system.cpu.dcache.demand_misses::.cpu.data        75444                       # number of demand (read+write) misses
system.cpu.dcache.demand_misses::total          75444                       # number of demand (read+write) misses
system.cpu.dcache.overall_misses::.cpu.data        75444                       # number of overall misses
[...]
system.l3cache.tags.occ_blocks::.cpu.data 25836.974833                       # Average occupied blocks per requestor
system.l3cache.tags.occ_percent::.cpu.inst     0.004472                       # Average percentage of cache occupancy
system.l3cache.tags.occ_percent::.cpu.data     0.788482                       # Average percentage of cache occupancy
system.l3cache.tags.occ_percent::total       0.792954                       # Average percentage of cache occupancy
system.l3cache.tags.occ_task_id_blocks::1024        32768                       # Occupied blocks per task id
system.l3cache.tags.age_task_id_blocks_1024::0          144                       # Occupied blocks per task id
system.l3cache.tags.age_task_id_blocks_1024::1          668                       # Occupied blocks per task id
system.l3cache.tags.age_task_id_blocks_1024::2         5902                       # Occupied blocks per task id
system.l3cache.tags.age_task_id_blocks_1024::3        26054                       # Occupied blocks per task id
system.l3cache.tags.occ_task_id_percent::1024            1                       # Percentage of cache occupancy per task id
system.l3cache.tags.tag_accesses              2430580                       # Number of tag accesses
system.l3cache.tags.data_accesses             2430580                       # Number of data accesses
system.l3cache.pwrStateResidencyTicks::UNDEFINED  11233122000                       # Cumulative time (in ticks) in various power states
system.l3cache.WritebackDirty_hits::.writebacks        71323                       # number of WritebackDirty hits
system.l3cache.WritebackDirty_hits::total        71323                       # number of WritebackDirty hits
system.l3cache.ReadSharedReq_hits::.cpu.data            3                       # number of ReadSharedReq hits
system.l3cache.ReadSharedReq_hits::total            3                       # number of ReadSharedReq hits
system.l3cache.demand_hits::.cpu.data               3                       # number of demand (read+write) hits
system.l3cache.demand_hits::total                   3                       # number of demand (read+write) hits
system.l3cache.overall_hits::.cpu.data              3                       # number of overall hits
system.l3cache.overall_hits::total                  3                       # number of overall hits
system.l3cache.ReadExReq_misses::.cpu.data        75131                       # number of ReadExReq misses
system.l3cache.ReadExReq_misses::total          75131                       # number of ReadExReq misses
system.l3cache.ReadSharedReq_misses::.cpu.inst          550                       # number of ReadSharedReq misses
system.l3cache.ReadSharedReq_misses::.cpu.data          164                       # number of ReadSharedReq misses
system.l3cache.ReadSharedReq_misses::total          714                       # number of ReadSharedReq misses
system.l3cache.demand_misses::.cpu.inst           550                       # number of demand (read+write) misses
system.l3cache.demand_misses::.cpu.data         75295                       # number of demand (read+write) misses
system.l3cache.demand_misses::total             75845                       # number of demand (read+write) misses
system.l3cache.overall_misses::.cpu.inst          550                       # number of overall misses
system.l3cache.overall_misses::.cpu.data        75295                       # number of overall misses
system.l3cache.overall_misses::total            75845                       # number of overall misses
system.l3cache.ReadExReq_miss_latency::.cpu.data   5317843000                       # number of ReadExReq miss cycles
system.l3cache.ReadExReq_miss_latency::total   5317843000                       # number of ReadExReq miss cycles
system.l3cache.ReadSharedReq_miss_latency::.cpu.inst     42193000                       # number of ReadSharedReq miss cycles
system.l3cache.ReadSharedReq_miss_latency::.cpu.data     12977000                       # number of ReadSharedReq miss cycles
system.l3cache.ReadSharedReq_miss_latency::total     55170000                       # number of ReadSharedReq miss cycles
system.l3cache.demand_miss_latency::.cpu.inst     42193000                       # number of demand (read+write) miss cycles
system.l3cache.demand_miss_latency::.cpu.data   5330820000                       # number of demand (read+write) miss cycles
system.l3cache.demand_miss_latency::total   5373013000                       # number of demand (read+write) miss cycles
system.l3cache.overall_miss_latency::.cpu.inst     42193000                       # number of overall miss cycles
system.l3cache.overall_miss_latency::.cpu.data   5330820000                       # number of overall miss cycles
system.l3cache.overall_miss_latency::total   5373013000                       # number of overall miss cycles
system.l3cache.WritebackDirty_accesses::.writebacks        71323                       # number of WritebackDirty accesses(hits+misses)
system.l3cache.WritebackDirty_accesses::total        71323                       # number of WritebackDirty accesses(hits+misses)
system.l3cache.ReadExReq_accesses::.cpu.data        75131                       # number of ReadExReq accesses(hits+misses)
system.l3cache.ReadExReq_accesses::total        75131                       # number of ReadExReq accesses(hits+misses)
system.l3cache.ReadSharedReq_accesses::.cpu.inst          550                       # number of ReadSharedReq accesses(hits+misses)
system.l3cache.ReadSharedReq_accesses::.cpu.data          167                       # number of ReadSharedReq accesses(hits+misses)
system.l3cache.ReadSharedReq_accesses::total          717                       # number of ReadSharedReq accesses(hits+misses)
system.l3cache.demand_accesses::.cpu.inst          550                       # number of demand (read+write) accesses
system.l3cache.demand_accesses::.cpu.data        75298                       # number of demand (read+write) accesses
system.l3cache.demand_accesses::total           75848                       # number of demand (read+write) accesses
system.l3cache.overall_accesses::.cpu.inst          550                       # number of overall (read+write) accesses
system.l3cache.overall_accesses::.cpu.data        75298                       # number of overall (read+write) accesses
system.l3cache.overall_accesses::total          75848                       # number of overall (read+write) accesses
system.l3cache.ReadExReq_miss_rate::.cpu.data            1                       # miss rate for ReadExReq accesses
system.l3cache.ReadExReq_miss_rate::total            1                       # miss rate for ReadExReq accesses
system.l3cache.ReadSharedReq_miss_rate::.cpu.inst            1                       # miss rate for ReadSharedReq accesses
system.l3cache.ReadSharedReq_miss_rate::.cpu.data     0.982036                       # miss rate for ReadSharedReq accesses
system.l3cache.ReadSharedReq_miss_rate::total     0.995816                       # miss rate for ReadSharedReq accesses
system.l3cache.demand_miss_rate::.cpu.inst            1                       # miss rate for demand accesses
system.l3cache.demand_miss_rate::.cpu.data     0.999960                       # miss rate for demand accesses
system.l3cache.demand_miss_rate::total       0.999960                       # miss rate for demand accesses
system.l3cache.overall_miss_rate::.cpu.inst            1                       # miss rate for overall accesses
system.l3cache.overall_miss_rate::.cpu.data     0.999960                       # miss rate for overall accesses
system.l3cache.overall_miss_rate::total      0.999960                       # miss rate for overall accesses
system.l3cache.ReadExReq_avg_miss_latency::.cpu.data 70780.942620                       # average ReadExReq miss latency
system.l3cache.ReadExReq_avg_miss_latency::total 70780.942620                       # average ReadExReq miss latency
system.l3cache.ReadSharedReq_avg_miss_latency::.cpu.inst 76714.545455                       # average ReadSharedReq miss latency
system.l3cache.ReadSharedReq_avg_miss_latency::.cpu.data 79128.048780                       # average ReadSharedReq miss latency
system.l3cache.ReadSharedReq_avg_miss_latency::total 77268.907563                       # average ReadSharedReq miss latency
system.l3cache.demand_avg_miss_latency::.cpu.inst 76714.545455                       # average overall miss latency
system.l3cache.demand_avg_miss_latency::.cpu.data 70799.123448                       # average overall miss latency
system.l3cache.demand_avg_miss_latency::total 70842.019909                       # average overall miss latency
system.l3cache.overall_avg_miss_latency::.cpu.inst 76714.545455                       # average overall miss latency
system.l3cache.overall_avg_miss_latency::.cpu.data 70799.123448                       # average overall miss latency
system.l3cache.overall_avg_miss_latency::total 70842.019909                       # average overall miss latency
system.l3cache.blocked_cycles::no_mshrs             0                       # number of cycles access was blocked
system.l3cache.blocked_cycles::no_targets            0                       # number of cycles access was blocked
system.l3cache.blocked::no_mshrs                    0                       # number of cycles access was blocked
system.l3cache.blocked::no_targets                  0                       # number of cycles access was blocked
system.l3cache.avg_blocked_cycles::no_mshrs          nan                       # average number of cycles each access was blocked
system.l3cache.avg_blocked_cycles::no_targets          nan                       # average number of cycles each access was blocked
system.l3cache.writebacks::.writebacks          42648                       # number of writebacks
system.l3cache.writebacks::total                42648                       # number of writebacks
system.l3cache.ReadExReq_mshr_misses::.cpu.data        75131                       # number of ReadExReq MSHR misses
system.l3cache.ReadExReq_mshr_misses::total        75131                       # number of ReadExReq MSHR misses
system.l3cache.ReadSharedReq_mshr_misses::.cpu.inst          550                       # number of ReadSharedReq MSHR misses
system.l3cache.ReadSharedReq_mshr_misses::.cpu.data          164                       # number of ReadSharedReq MSHR misses
system.l3cache.ReadSharedReq_mshr_misses::total          714                       # number of ReadSharedReq MSHR misses
system.l3cache.demand_mshr_misses::.cpu.inst          550                       # number of demand (read+write) MSHR misses
system.l3cache.demand_mshr_misses::.cpu.data        75295                       # number of demand (read+write) MSHR misses
system.l3cache.demand_mshr_misses::total        75845                       # number of demand (read+write) MSHR misses
system.l3cache.overall_mshr_misses::.cpu.inst          550                       # number of overall MSHR misses
system.l3cache.overall_mshr_misses::.cpu.data        75295                       # number of overall MSHR misses
system.l3cache.overall_mshr_misses::total        75845                       # number of overall MSHR misses
system.l3cache.ReadExReq_mshr_miss_latency::.cpu.data   5167581000                       # number of ReadExReq MSHR miss cycles
system.l3cache.ReadExReq_mshr_miss_latency::total   5167581000                       # number of ReadExReq MSHR miss cycles
system.l3cache.ReadSharedReq_mshr_miss_latency::.cpu.inst     41095000                       # number of ReadSharedReq MSHR miss cycles
system.l3cache.ReadSharedReq_mshr_miss_latency::.cpu.data     12649000                       # number of ReadSharedReq MSHR miss cycles
system.l3cache.ReadSharedReq_mshr_miss_latency::total     53744000                       # number of ReadSharedReq MSHR miss cycles
system.l3cache.demand_mshr_miss_latency::.cpu.inst     41095000                       # number of demand (read+write) MSHR miss cycles
system.l3cache.demand_mshr_miss_latency::.cpu.data   5180230000                       # number of demand (read+write) MSHR miss cycles
system.l3cache.demand_mshr_miss_latency::total   5221325000                       # number of demand (read+write) MSHR miss cycles
system.l3cache.overall_mshr_miss_latency::.cpu.inst     41095000                       # number of overall MSHR miss cycles
system.l3cache.overall_mshr_miss_latency::.cpu.data   5180230000                       # number of overall MSHR miss cycles
system.l3cache.overall_mshr_miss_latency::total   5221325000                       # number of overall MSHR miss cycles
system.l3cache.ReadExReq_mshr_miss_rate::.cpu.data            1                       # mshr miss rate for ReadExReq accesses
system.l3cache.ReadExReq_mshr_miss_rate::total            1                       # mshr miss rate for ReadExReq accesses
system.l3cache.ReadSharedReq_mshr_miss_rate::.cpu.inst            1                       # mshr miss rate for ReadSharedReq accesses
system.l3cache.ReadSharedReq_mshr_miss_rate::.cpu.data     0.982036                       # mshr miss rate for ReadSharedReq accesses
system.l3cache.ReadSharedReq_mshr_miss_rate::total     0.995816                       # mshr miss rate for ReadSharedReq accesses
system.l3cache.demand_mshr_miss_rate::.cpu.inst            1                       # mshr miss rate for demand accesses
system.l3cache.demand_mshr_miss_rate::.cpu.data     0.999960                       # mshr miss rate for demand accesses
system.l3cache.demand_mshr_miss_rate::total     0.999960                       # mshr miss rate for demand accesses
system.l3cache.overall_mshr_miss_rate::.cpu.inst            1                       # mshr miss rate for overall accesses
system.l3cache.overall_mshr_miss_rate::.cpu.data     0.999960                       # mshr miss rate for overall accesses
system.l3cache.overall_mshr_miss_rate::total     0.999960                       # mshr miss rate for overall accesses
system.l3cache.ReadExReq_avg_mshr_miss_latency::.cpu.data 68780.942620                       # average ReadExReq mshr miss latency
system.l3cache.ReadExReq_avg_mshr_miss_latency::total 68780.942620                       # average ReadExReq mshr miss latency
system.l3cache.ReadSharedReq_avg_mshr_miss_latency::.cpu.inst 74718.181818                       # average ReadSharedReq mshr miss latency
system.l3cache.ReadSharedReq_avg_mshr_miss_latency::.cpu.data 77128.048780                       # average ReadSharedReq mshr miss latency
system.l3cache.ReadSharedReq_avg_mshr_miss_latency::total 75271.708683                       # average ReadSharedReq mshr miss latency
system.l3cache.demand_avg_mshr_miss_latency::.cpu.inst 74718.181818                       # average overall mshr miss latency
system.l3cache.demand_avg_mshr_miss_latency::.cpu.data 68799.123448                       # average overall mshr miss latency
system.l3cache.demand_avg_mshr_miss_latency::total 68842.046279                       # average overall mshr miss latency
system.l3cache.overall_avg_mshr_miss_latency::.cpu.inst 74718.181818                       # average overall mshr miss latency
system.l3cache.overall_avg_mshr_miss_latency::.cpu.data 68799.123448                       # average overall mshr miss latency
system.l3cache.overall_avg_mshr_miss_latency::total 68842.046279                       # average overall mshr miss latency
system.l3cache.replacements                     43076                       # number of replacements
system.membus.snoop_filter.tot_requests        118667                       # Total number of requests made to the snoop filter.
system.membus.snoop_filter.hit_single_requests        42829                       # Number of requests hitting in the snoop filter with a single holder of the requested data.
system.membus.snoop_filter.hit_multi_requests            0                       # Number of requests hitting in the snoop filter with multiple (>1) holders of the requested data.
system.membus.snoop_filter.tot_snoops               0                       # Total number of snoops made to the snoop filter.
system.membus.snoop_filter.hit_single_snoops            0                       # Number of snoops hitting in the snoop filter with a single holder of the requested data.
system.membus.snoop_filter.hit_multi_snoops            0                       # Number of snoops hitting in the snoop filter with multiple (>1) holders of the requested data.
system.membus.pwrStateResidencyTicks::UNDEFINED  11233122000                       # Cumulative time (in ticks) in various power states
system.membus.trans_dist::ReadResp                713                       # Transaction distribution
system.membus.trans_dist::WritebackDirty        42648                       # Transaction distribution
system.membus.trans_dist::CleanEvict              174                       # Transaction distribution
system.membus.trans_dist::ReadExReq             75131                       # Transaction distribution
system.membus.trans_dist::ReadExResp            75131                       # Transaction distribution
system.membus.trans_dist::ReadSharedReq           714                       # Transaction distribution
system.membus.pkt_count_system.l3cache.mem_side::system.mem_ctrl.port       194511                       # Packet count per connected master and slave (bytes)
system.membus.pkt_count_system.l3cache.mem_side::total       194511                       # Packet count per connected master and slave (bytes)
system.membus.pkt_count::total                 194511                       # Packet count per connected master and slave (bytes)
system.membus.pkt_size_system.l3cache.mem_side::system.mem_ctrl.port      7583488                       # Cumulative packet size per connected master and slave (bytes)
system.membus.pkt_size_system.l3cache.mem_side::total      7583488                       # Cumulative packet size per connected master and slave (bytes)
system.membus.pkt_size::total                 7583488                       # Cumulative packet size per connected master and slave (bytes)
system.membus.snoops                                0                       # Total snoops (count)
system.membus.snoopTraffic                          0                       # Total snoop traffic (bytes)
system.membus.snoop_fanout::samples             75845                       # Request fanout histogram
system.membus.snoop_fanout::mean                    0                       # Request fanout histogram
system.membus.snoop_fanout::stdev                   0                       # Request fanout histogram
system.membus.snoop_fanout::underflows              0      0.00%      0.00% # Request fanout histogram
system.membus.snoop_fanout::0                   75845    100.00%    100.00% # Request fanout histogram
system.membus.snoop_fanout::1                       0      0.00%    100.00% # Request fanout histogram
system.membus.snoop_fanout::overflows               0      0.00%    100.00% # Request fanout histogram
system.membus.snoop_fanout::min_value               0                       # Request fanout histogram
system.membus.snoop_fanout::max_value               0                       # Request fanout histogram
system.membus.snoop_fanout::total               75845                       # Request fanout histogram
system.membus.reqLayer0.occupancy           144629500                       # Layer occupancy (ticks)
system.membus.reqLayer0.utilization               1.3                       # Layer utilization (%)
system.membus.respLayer0.occupancy          207466250                       # Layer occupancy (ticks)
system.membus.respLayer0.utilization              1.8                       # Layer utilization (%)

---------- End Simulation Statistics   ----------