
---------- Begin Simulation Statistics ----------
sim_seconds                                  0.011193                       # Number of seconds simulated
sim_ticks                                 11193190000                       # Number of ticks simulated
final_tick                                11193190000                       # Number of ticks from beginning of simulation (restored from checkpoints and never reset)
sim_freq                                 1000000000000                       # Frequency of simulated ticks
host_inst_rate                                 407448                       # Simulator instruction rate (inst/s)
host_op_rate                                   692752                       # Simulator op (including micro ops) rate (op/s)
host_tick_rate                              379717607                       # Simulator tick rate (ticks/s)
host_mem_usage                               10373108                       # Number of bytes of host memory used
host_seconds                                    29.48                       # Real time elapsed on the host
sim_insts                                    12010628                       # Number of instructions simulated
sim_ops                                      20420699                       # Number of ops (including micro ops) simulated
system.clk_domain.voltage_domain.voltage            1                       # Voltage in Volts
system.clk_domain.clock                           500                       # Clock period in ticks
system.mem_ctrl.pwrStateResidencyTicks::UNDEFINED  11193190000                       # Cumulative time (in ticks) in various power states
system.mem_ctrl.bytes_read::.cpu.inst           35520                       # Number of bytes read from this memory
system.mem_ctrl.bytes_read::.cpu.data         4818688                       # Number of bytes read from this memory
system.mem_ctrl.bytes_read::total             4854208                       # Number of bytes read from this memory
system.mem_ctrl.bytes_inst_read::.cpu.inst        35520                       # Number of instructions bytes read from this memory
system.mem_ctrl.bytes_inst_read::total          35520                       # Number of instructions bytes read from this memory
system.mem_ctrl.bytes_written::.writebacks      2729536                       # Number of bytes written to this memory
system.mem_ctrl.bytes_written::total          2729536                       # Number of bytes written to this memory
system.mem_ctrl.num_reads::.cpu.inst              555                       # Number of read requests responded to by this memory
system.mem_ctrl.num_reads::.cpu.data            75292                       # Number of read requests responded to by this memory
system.mem_ctrl.num_reads::total                75847                       # Number of read requests responded to by this memory
system.mem_ctrl.num_writes::.writebacks         42649                       # Number of write requests responded to by this memory
system.mem_ctrl.num_writes::total               42649                       # Number of write requests responded to by this memory
system.mem_ctrl.bw_read::.cpu.inst            3173358                       # Total read bandwidth from this memory (bytes/s)
system.mem_ctrl.bw_read::.cpu.data          430501760                       # Total read bandwidth from this memory (bytes/s)
system.mem_ctrl.bw_read::total              433675119                       # Total read bandwidth from this memory (bytes/s)
system.mem_ctrl.bw_inst_read::.cpu.inst       3173358                       # Instruction read bandwidth from this memory (bytes/s)
system.mem_ctrl.bw_inst_read::total           3173358                       # Instruction read bandwidth from this memory (bytes/s)
system.mem_ctrl.bw_write::.writebacks       243856845                       # Write bandwidth from this memory (bytes/s)
system.mem_ctrl.bw_write::total             243856845                       # Write bandwidth from this memory (bytes/s)
system.mem_ctrl.bw_total::.writebacks       243856845                       # Total bandwidth to/from this memory (bytes/s)
system.mem_ctrl.bw_total::.cpu.inst           3173358                       # Total bandwidth to/from this memory (bytes/s)
system.mem_ctrl.bw_total::.cpu.data         430501760                       # Total bandwidth to/from this memory (bytes/s)
system.mem_ctrl.bw_total::total             677531964                       # Total bandwidth to/from this memory (bytes/s)
system.mem_ctrl.avgPriority_.writebacks::samples     42649.00                       # Average QoS priority value for accepted requests
system.mem_ctrl.avgPriority_.cpu.inst::samples       555.00                       # Average QoS priority value for accepted requests
system.mem_ctrl.avgPriority_.cpu.data::samples     75292.00                       # Average QoS priority value for accepted requests
system.mem_ctrl.priorityMinLatency       0.000000018750                       # per QoS priority minimum request to response latency (s)
system.mem_ctrl.priorityMaxLatency       0.000070057500                       # per QoS priority maximum request to response latency (s)
system.mem_ctrl.numReadWriteTurnArounds          2478                       # Number of turnarounds from READ to WRITE
system.mem_ctrl.numWriteReadTurnArounds          2478                       # Number of turnarounds from WRITE to READ
system.mem_ctrl.numStayReadState               193652                       # Number of times bus staying in READ state
system.mem_ctrl.numStayWriteState               40268                       # Number of times bus staying in WRITE state
system.mem_ctrl.readReqs                        75847                       # Number of read requests accepted
system.mem_ctrl.writeReqs                       42649                       # Number of write requests accepted
system.mem_ctrl.readBursts                      75847                       # Number of DRAM read bursts, including those serviced by the write queue
system.mem_ctrl.writeBursts                     42649                       # Number of DRAM write bursts, including those merged in the write queue
system.mem_ctrl.bytesReadDRAM                 4854208                       # Total number of bytes read from DRAM
system.mem_ctrl.bytesReadWrQ                        0                       # Total number of bytes read from write queue
system.mem_ctrl.bytesWritten                  2728320                       # Total number of bytes written to DRAM
system.mem_ctrl.bytesReadSys                  4854208                       # Total read bytes from the system interface side
system.mem_ctrl.bytesWrittenSys               2729536                       # Total written bytes from the system interface side
system.mem_ctrl.servicedByWrQ                       0                       # Number of DRAM read bursts serviced by the write queue
system.mem_ctrl.mergedWrBursts                      0                       # Number of DRAM write bursts merged with an existing one
system.mem_ctrl.neitherReadNorWriteReqs             0                       # Number of requests that are neither read nor write
system.mem_ctrl.perBankRdBursts::0               4761                       # Per bank write bursts
system.mem_ctrl.perBankRdBursts::1               4703                       # Per bank write bursts
system.mem_ctrl.perBankRdBursts::2               4749                       # Per bank write bursts
system.mem_ctrl.perBankRdBursts::3               4746                       # Per bank write bursts
system.mem_ctrl.perBankRdBursts::4               4748                       # Per bank write bursts
system.mem_ctrl.perBankRdBursts::5               4775                       # Per bank write bursts
system.mem_ctrl.perBankRdBursts::6               4776                       # Per bank write bursts
system.mem_ctrl.perBankRdBursts::7               4778                       # Per bank write bursts
system.mem_ctrl.perBankRdBursts::8               4739                       # Per bank write bursts
system.mem_ctrl.perBankRdBursts::9               4767                       # Per bank write bursts
system.mem_ctrl.perBankRdBursts::10              4785                       # Per bank write bursts
system.mem_ctrl.perBankRdBursts::11              4684                       # Per bank write bursts
system.mem_ctrl.perBankRdBursts::12              4718                       # Per bank write bursts
system.mem_ctrl.perBankRdBursts::13              4686                       # Per bank write bursts
system.mem_ctrl.perBankRdBursts::14              4735                       # Per bank write bursts
system.mem_ctrl.perBankRdBursts::15              4697                       # Per bank write bursts
system.mem_ctrl.perBankWrBursts::0               2645                       # Per bank write bursts
system.mem_ctrl.perBankWrBursts::1               2628                       # Per bank write bursts
system.mem_ctrl.perBankWrBursts::2               2691                       # Per bank write bursts
system.mem_ctrl.perBankWrBursts::3               2691                       # Per bank write bursts
system.mem_ctrl.perBankWrBursts::4               2692                       # Per bank write bursts
system.mem_ctrl.perBankWrBursts::5               2692                       # Per bank write bursts
system.mem_ctrl.perBankWrBursts::6               2690                       # Per bank write bursts
system.mem_ctrl.perBankWrBursts::7               2713                       # Per bank write bursts
system.mem_ctrl.perBankWrBursts::8               2688                       # Per bank write bursts
system.mem_ctrl.perBankWrBursts::9               2707                       # Per bank write bursts
system.mem_ctrl.perBankWrBursts::10              2713                       # Per bank write bursts
system.mem_ctrl.perBankWrBursts::11              2632                       # Per bank write bursts
system.mem_ctrl.perBankWrBursts::12              2624                       # Per bank write bursts
system.mem_ctrl.perBankWrBursts::13              2601                       # Per bank write bursts
system.mem_ctrl.perBankWrBursts::14              2608                       # Per bank write bursts
system.mem_ctrl.perBankWrBursts::15              2615                       # Per bank write bursts
system.mem_ctrl.numRdRetry                          0                       # Number of times read queue was full causing retry
system.mem_ctrl.numWrRetry                          0                       # Number of times write queue was full causing retry
system.mem_ctrl.totGap                    11193154000                       # Total gap between requests
system.mem_ctrl.readPktSize::0                      0                       # Read request sizes (log2)
system.mem_ctrl.readPktSize::1                      0                       # Read request sizes (log2)
system.mem_ctrl.readPktSize::2                      0                       # Read request sizes (log2)
system.mem_ctrl.readPktSize::3                      0                       # Read request sizes (log2)
system.mem_ctrl.readPktSize::4                      0                       # Read request sizes (log2)
system.mem_ctrl.readPktSize::5                      0                       # Read request sizes (log2)
system.mem_ctrl.readPktSize::6                  75847                       # Read request sizes (log2)
system.mem_ctrl.writePktSize::0                     0                       # Write request sizes (log2)
system.mem_ctrl.writePktSize::1                     0                       # Write request sizes (log2)
system.mem_ctrl.writePktSize::2                     0                       # Write request sizes (log2)
system.mem_ctrl.writePktSize::3                     0                       # Write request sizes (log2)
system.mem_ctrl.writePktSize::4                     0                       # Write request sizes (log2)
system.mem_ctrl.writePktSize::5                     0                       # Write request sizes (log2)
system.mem_ctrl.writePktSize::6                 42649                       # Write request sizes (log2)
system.mem_ctrl.rdQLenPdf::0                    75523                       # What read queue length does an incoming req see
system.mem_ctrl.rdQLenPdf::1                      240                       # What read queue length does an incoming req see
system.mem_ctrl.rdQLenPdf::2                       61                       # What read queue length does an incoming req see
system.mem_ctrl.rdQLenPdf::3                       16                       # What read queue length does an incoming req see
system.mem_ctrl.rdQLenPdf::4                        5                       # What read queue length does an incoming req see
system.mem_ctrl.rdQLenPdf::5                        2                       # What read queue length does an incoming req see
system.mem_ctrl.rdQLenPdf::6                        0                       # What read queue length does an incoming req see
system.mem_ctrl.rdQLenPdf::7                        0                       # What read queue length does an incoming req see
system.mem_ctrl.rdQLenPdf::8                        0                       # What read queue length does an incoming req see
system.mem_ctrl.rdQLenPdf::9                        0                       # What read queue length does an incoming req see
system.mem_ctrl.rdQLenPdf::10                       0                       # What read queue length does an incoming req see
system.mem_ctrl.rdQLenPdf::11                       0                       # What read queue length does an incoming req see
system.mem_ctrl.rdQLenPdf::12                       0                       # What read queue length does an incoming req see
system.mem_ctrl.rdQLenPdf::13                       0                       # What read queue length does an incoming req see
system.mem_ctrl.rdQLenPdf::14                       0                       # What read queue length does an incoming req see
system.mem_ctrl.rdQLenPdf::15                       0                       # What read queue length does an incoming req see
system.mem_ctrl.rdQLenPdf::16                       0                       # What read queue length does an incoming req see
system.mem_ctrl.rdQLenPdf::17                       0                       # What read queue length does an incoming req see
system.mem_ctrl.rdQLenPdf::18                       0                       # What read queue length does an incoming req see
system.mem_ctrl.rdQLenPdf::19                       0                       # What read queue length does an incoming req see
system.mem_ctrl.rdQLenPdf::20                       0                       # What read queue length does an incoming req see
system.mem_ctrl.rdQLenPdf::21                       0                       # What read queue length does an incoming req see
system.mem_ctrl.rdQLenPdf::22                       0                       # What read queue length does an incoming req see
system.mem_ctrl.rdQLenPdf::23                       0                       # What read queue length does an incoming req see
system.mem_ctrl.rdQLenPdf::24                       0                       # What read queue length does an incoming req see
system.mem_ctrl.rdQLenPdf::25                       0                       # What read queue length does an incoming req see
system.mem_ctrl.rdQLenPdf::26                       0                       # What read queue length does an incoming req see
system.mem_ctrl.rdQLenPdf::27                       0                       # What read queue length does an incoming req see
system.mem_ctrl.rdQLenPdf::28                       0                       # What read queue length does an incoming req see
system.mem_ctrl.rdQLenPdf::29                       0                       # What read queue length does an incoming req see
system.mem_ctrl.rdQLenPdf::30                       0                       # What read queue length does an incoming req see
system.mem_ctrl.rdQLenPdf::31                       0                       # What read queue length does an incoming req see
system.mem_ctrl.wrQLenPdf::0                        1                       # What write queue length does an incoming req see
system.mem_ctrl.wrQLenPdf::1                        1                       # What write queue length does an incoming req see
system.mem_ctrl.wrQLenPdf::2                        1                       # What write queue length does an incoming req see
system.mem_ctrl.wrQLenPdf::3                        1                       # What write queue length does an incoming req see
system.mem_ctrl.wrQLenPdf::4                        1                       # What write queue length does an incoming req see
system.mem_ctrl.wrQLenPdf::5                        1                       # What write queue length does an incoming req see
system.mem_ctrl.wrQLenPdf::6                        1                       # What write queue length does an incoming req see
system.mem_ctrl.wrQLenPdf::7                        1                       # What write queue length does an incoming req see
system.mem_ctrl.wrQLenPdf::8                        1                       # What write queue length does an incoming req see
system.mem_ctrl.wrQLenPdf::9                        1                       # What write queue length does an incoming req see
system.mem_ctrl.wrQLenPdf::10                       1                       # What write queue length does an incoming req see
system.mem_ctrl.wrQLenPdf::11                       1                       # What write queue length does an incoming req see
system.mem_ctrl.wrQLenPdf::12                       1                       # What write queue length does an incoming req see
system.mem_ctrl.wrQLenPdf::13                       1                       # What write queue length does an incoming req see
system.mem_ctrl.wrQLenPdf::14                       1                       # What write queue length does an incoming req see
system.mem_ctrl.wrQLenPdf::15                     577                       # What write queue length does an incoming req see
system.mem_ctrl.wrQLenPdf::16                    2405                       # What write queue length does an incoming req see
system.mem_ctrl.wrQLenPdf::17                    2473                       # What write queue length does an incoming req see
system.mem_ctrl.wrQLenPdf::18                    2479                       # What write queue length does an incoming req see
system.mem_ctrl.wrQLenPdf::19                    2477                       # What write queue length does an incoming req see
system.mem_ctrl.wrQLenPdf::20                    2477                       # What write queue length does an incoming req see
system.mem_ctrl.wrQLenPdf::21                    2478                       # What write queue length does an incoming req see
system.mem_ctrl.wrQLenPdf::22                    2478                       # What write queue length does an incoming req see
system.mem_ctrl.wrQLenPdf::23                    2478                       # What write queue length does an incoming req see
system.mem_ctrl.wrQLenPdf::24                    2478                       # What write queue length does an incoming req see
system.mem_ctrl.wrQLenPdf::25                    2478                       # What write queue length does an incoming req see
system.mem_ctrl.wrQLenPdf::26                    2478                       # What write queue length does an incoming req see
system.mem_ctrl.wrQLenPdf::27                    2478                       # What write queue length does an incoming req see
system.mem_ctrl.wrQLenPdf::28                    2478                       # What write queue length does an incoming req see
system.mem_ctrl.wrQLenPdf::29                    2478                       # What write queue length does an incoming req see
system.mem_ctrl.wrQLenPdf::30                    2484                       # What write queue length does an incoming req see
system.mem_ctrl.wrQLenPdf::31                    2479                       # What write queue length does an incoming req see
system.mem_ctrl.wrQLenPdf::32                    2481                       # What write queue length does an incoming req see
system.mem_ctrl.wrQLenPdf::33                       0                       # What write queue length does an incoming req see
system.mem_ctrl.wrQLenPdf::34                       0                       # What write queue length does an incoming req see
system.mem_ctrl.wrQLenPdf::35                       0                       # What write queue length does an incoming req see
system.mem_ctrl.wrQLenPdf::36                       0                       # What write queue length does an incoming req see
system.mem_ctrl.wrQLenPdf::37                       0                       # What write queue length does an incoming req see
system.mem_ctrl.wrQLenPdf::38                       0                       # What write queue length does an incoming req see
system.mem_ctrl.wrQLenPdf::39                       0                       # What write queue length does an incoming req see
system.mem_ctrl.wrQLenPdf::40                       0                       # What write queue length does an incoming req see
system.mem_ctrl.wrQLenPdf::41                       0                       # What write queue length does an incoming req see
system.mem_ctrl.wrQLenPdf::42                       0                       # What write queue length does an incoming req see
system.mem_ctrl.wrQLenPdf::43                       0                       # What write queue length does an incoming req see
system.mem_ctrl.wrQLenPdf::44                       0                       # What write queue length does an incoming req see
system.mem_ctrl.wrQLenPdf::45                       0                       # What write queue length does an incoming req see
system.mem_ctrl.wrQLenPdf::46                       0                       # What write queue length does an incoming req see
system.mem_ctrl.wrQLenPdf::47                       0                       # What write queue length does an incoming req see
system.mem_ctrl.wrQLenPdf::48                       0                       # What write queue length does an incoming req see
system.mem_ctrl.wrQLenPdf::49                       0                       # What write queue length does an incoming req see
system.mem_ctrl.wrQLenPdf::50                       0                       # What write queue length does an incoming req see
system.mem_ctrl.wrQLenPdf::51                       0                       # What write queue length does an incoming req see
system.mem_ctrl.wrQLenPdf::52                       0                       # What write queue length does an incoming req see
system.mem_ctrl.wrQLenPdf::53                       0                       # What write queue length does an incoming req see
system.mem_ctrl.wrQLenPdf::54                       0                       # What write queue length does an incoming req see
system.mem_ctrl.wrQLenPdf::55                       0                       # What write queue length does an incoming req see
system.mem_ctrl.wrQLenPdf::56                       0                       # What write queue length does an incoming req see
system.mem_ctrl.wrQLenPdf::57                       0                       # What write queue length does an incoming req see
system.mem_ctrl.wrQLenPdf::58                       0                       # What write queue length does an incoming req see
system.mem_ctrl.wrQLenPdf::59                       0                       # What write queue length does an incoming req see
system.mem_ctrl.wrQLenPdf::60                       0                       # What write queue length does an incoming req see
system.mem_ctrl.wrQLenPdf::61                       0                       # What write queue length does an incoming req see
system.mem_ctrl.wrQLenPdf::62                       0                       # What write queue length does an incoming req see
system.mem_ctrl.wrQLenPdf::63                       0                       # What write queue length does an incoming req see
system.mem_ctrl.bytesPerActivate::samples        12628                       # Bytes accessed per row activation
system.mem_ctrl.bytesPerActivate::mean     600.311688                       # Bytes accessed per row activation
system.mem_ctrl.bytesPerActivate::gmean    362.326405                       # Bytes accessed per row activation
system.mem_ctrl.bytesPerActivate::stdev    427.846035                       # Bytes accessed per row activation
system.mem_ctrl.bytesPerActivate::0-127          3306     26.18%     26.18% # Bytes accessed per row activation
system.mem_ctrl.bytesPerActivate::128-255         1063      8.42%     34.60% # Bytes accessed per row activation
system.mem_ctrl.bytesPerActivate::256-383          413      3.27%     37.87% # Bytes accessed per row activation
system.mem_ctrl.bytesPerActivate::384-511          786      6.22%     44.09% # Bytes accessed per row activation
system.mem_ctrl.bytesPerActivate::512-639          358      2.83%     46.93% # Bytes accessed per row activation
system.mem_ctrl.bytesPerActivate::640-767          406      3.22%     50.14% # Bytes accessed per row activation
system.mem_ctrl.bytesPerActivate::768-895          356      2.82%     52.96% # Bytes accessed per row activation
system.mem_ctrl.bytesPerActivate::896-1023          360      2.85%     55.81% # Bytes accessed per row activation
system.mem_ctrl.bytesPerActivate::1024-1151         5580     44.19%    100.00% # Bytes accessed per row activation
system.mem_ctrl.bytesPerActivate::total         12628                       # Bytes accessed per row activation
system.mem_ctrl.rdPerTurnAround::samples         2478                       # Reads before turning the bus around for writes
system.mem_ctrl.rdPerTurnAround::mean       30.606538                       # Reads before turning the bus around for writes
system.mem_ctrl.rdPerTurnAround::gmean      17.305967                       # Reads before turning the bus around for writes
system.mem_ctrl.rdPerTurnAround::stdev     657.530557                       # Reads before turning the bus around for writes
system.mem_ctrl.rdPerTurnAround::0-1023          2477     99.96%     99.96% # Reads before turning the bus around for writes
system.mem_ctrl.rdPerTurnAround::31744-32767            1      0.04%    100.00% # Reads before turning the bus around for writes
system.mem_ctrl.rdPerTurnAround::total           2478                       # Reads before turning the bus around for writes
system.mem_ctrl.wrPerTurnAround::samples         2478                       # Writes before turning the bus around for reads
system.mem_ctrl.wrPerTurnAround::mean       17.203390                       # Writes before turning the bus around for reads
system.mem_ctrl.wrPerTurnAround::gmean      17.197008                       # Writes before turning the bus around for reads
system.mem_ctrl.wrPerTurnAround::stdev       0.470996                       # Writes before turning the bus around for reads
system.mem_ctrl.wrPerTurnAround::16                73      2.95%      2.95% # Writes before turning the bus around for reads
system.mem_ctrl.wrPerTurnAround::17              1829     73.81%     76.76% # Writes before turning the bus around for reads
system.mem_ctrl.wrPerTurnAround::18               575     23.20%     99.96% # Writes before turning the bus around for reads
system.mem_ctrl.wrPerTurnAround::19                 1      0.04%    100.00% # Writes before turning the bus around for reads
system.mem_ctrl.wrPerTurnAround::total           2478                       # Writes before turning the bus around for reads
system.mem_ctrl.masterReadBytes::.cpu.inst        35520                       # Per-master bytes read from memory
system.mem_ctrl.masterReadBytes::.cpu.data      4818688                       # Per-master bytes read from memory
system.mem_ctrl.masterWriteBytes::.writebacks      2728320                       # Per-master bytes write to memory
system.mem_ctrl.masterReadRate::.cpu.inst 3173358.086479368154                       # Per-master bytes read from memory rate (Bytes/sec)
system.mem_ctrl.masterReadRate::.cpu.data 430501760.445413649082                       # Per-master bytes read from memory rate (Bytes/sec)
system.mem_ctrl.masterWriteRate::.writebacks 243748207.615523368120                       # Per-master bytes write to memory rate (Bytes/sec)
system.mem_ctrl.masterReadAccesses::.cpu.inst          555                       # Per-master read serviced memory accesses
system.mem_ctrl.masterReadAccesses::.cpu.data        75292                       # Per-master read serviced memory accesses
system.mem_ctrl.masterWriteAccesses::.writebacks        42649                       # Per-master write serviced memory accesses
system.mem_ctrl.masterReadTotalLat::.cpu.inst     21360250                       # Per-master read total memory access latency
system.mem_ctrl.masterReadTotalLat::.cpu.data   2583599000                       # Per-master read total memory access latency
system.mem_ctrl.masterWriteTotalLat::.writebacks 156586199500                       # Per-master write total memory access latency
system.mem_ctrl.masterReadAvgLat::.cpu.inst     38486.94                       # Per-master read average memory access latency
system.mem_ctrl.masterReadAvgLat::.cpu.data     34314.39                       # Per-master read average memory access latency
system.mem_ctrl.masterWriteAvgLat::.writebacks   3671509.29                       # Per-master write average memory access latency
system.mem_ctrl.totQLat                    1182828000                       # Total ticks spent queuing
system.mem_ctrl.totMemAccLat               2604959250                       # Total ticks spent from burst creation until serviced by the DRAM
system.mem_ctrl.totBusLat                   379235000                       # Total ticks spent in databus transfers
system.mem_ctrl.avgQLat                      15594.92                       # Average queueing delay per DRAM burst
system.mem_ctrl.avgBusLat                     5000.00                       # Average bus latency per DRAM burst
system.mem_ctrl.avgMemAccLat                 34344.92                       # Average memory access latency per DRAM burst
system.mem_ctrl.avgRdBW                        433.68                       # Average DRAM read bandwidth in MiByte/s
system.mem_ctrl.avgWrBW                        243.75                       # Average achieved write bandwidth in MiByte/s
system.mem_ctrl.avgRdBWSys                     433.68                       # Average system read bandwidth in MiByte/s
system.mem_ctrl.avgWrBWSys                     243.86                       # Average system write bandwidth in MiByte/s
system.mem_ctrl.peakBW                       12800.00                       # Theoretical peak bandwidth in MiByte/s
system.mem_ctrl.busUtil                          5.29                       # Data bus utilization in percentage
system.mem_ctrl.busUtilRead                      3.39                       # Data bus utilization in percentage for reads
system.mem_ctrl.busUtilWrite                     1.90                       # Data bus utilization in percentage for writes
system.mem_ctrl.avgRdQLen                        1.00                       # Average read queue length when enqueuing
system.mem_ctrl.avgWrQLen                       14.71                       # Average write queue length when enqueuing
system.mem_ctrl.readRowHits                     68199                       # Number of row buffer hits during reads
system.mem_ctrl.writeRowHits                    37640                       # Number of row buffer hits during writes
system.mem_ctrl.readRowHitRate                  89.92                       # Row buffer hit rate for reads
system.mem_ctrl.writeRowHitRate                 88.26                       # Row buffer hit rate for writes
system.mem_ctrl.avgGap                       94460.18                       # Average gap between requests
system.mem_ctrl.pageHitRate                     89.32                       # Row buffer hit rate, read and write combined
system.mem_ctrl_0.actEnergy                  45496080                       # Energy for activate commands per rank (pJ)
system.mem_ctrl_0.preEnergy                  24166560                       # Energy for precharge commands per rank (pJ)
system.mem_ctrl_0.readEnergy                271577040                       # Energy for read commands per rank (pJ)
system.mem_ctrl_0.writeEnergy               111927240                       # Energy for write commands per rank (pJ)
system.mem_ctrl_0.refreshEnergy          477575280.000000                       # Energy for refresh commands per rank (pJ)
system.mem_ctrl_0.actBackEnergy             662440890                       # Energy for active background per rank (pJ)
system.mem_ctrl_0.preBackEnergy              38102400                       # Energy for precharge background per rank (pJ)
system.mem_ctrl_0.actPowerDownEnergy       1840010730                       # Energy for active power-down per rank (pJ)
system.mem_ctrl_0.prePowerDownEnergy        182682720                       # Energy for precharge power-down per rank (pJ)
system.mem_ctrl_0.selfRefreshEnergy        1251727980                       # Energy for self refresh per rank (pJ)
system.mem_ctrl_0.totalEnergy              4905706920                       # Total energy per rank (pJ)
system.mem_ctrl_0.averagePower             438.276034                       # Core power per rank (mW)
system.mem_ctrl_0.totalIdleTime            9641198750                       # Total Idle time Per DRAM Rank
system.mem_ctrl_0.memoryStateTime::IDLE      22824500                       # Time in different power states
system.mem_ctrl_0.memoryStateTime::REF      202020000                       # Time in different power states
system.mem_ctrl_0.memoryStateTime::SREF    5130395250                       # Time in different power states
system.mem_ctrl_0.memoryStateTime::PRE_PDN    475752250                       # Time in different power states
system.mem_ctrl_0.memoryStateTime::ACT     1327098000                       # Time in different power states
system.mem_ctrl_0.memoryStateTime::ACT_PDN   4035100000                       # Time in different power states
system.mem_ctrl_1.actEnergy                  44739240                       # Energy for activate commands per rank (pJ)
system.mem_ctrl_1.preEnergy                  23756700                       # Energy for precharge commands per rank (pJ)
system.mem_ctrl_1.readEnergy                269970540                       # Energy for read commands per rank (pJ)
system.mem_ctrl_1.writeEnergy               110601360                       # Energy for write commands per rank (pJ)
system.mem_ctrl_1.refreshEnergy          477575280.000000                       # Energy for refresh commands per rank (pJ)
system.mem_ctrl_1.actBackEnergy             675586230                       # Energy for active background per rank (pJ)
system.mem_ctrl_1.preBackEnergy              37248000                       # Energy for precharge background per rank (pJ)
system.mem_ctrl_1.actPowerDownEnergy       1820325210                       # Energy for active power-down per rank (pJ)
system.mem_ctrl_1.prePowerDownEnergy        191061600                       # Energy for precharge power-down per rank (pJ)
system.mem_ctrl_1.selfRefreshEnergy        1255437540                       # Energy for self refresh per rank (pJ)
system.mem_ctrl_1.totalEnergy              4907204790                       # Total energy per rank (pJ)
system.mem_ctrl_1.averagePower             438.409854                       # Core power per rank (mW)
system.mem_ctrl_1.totalIdleTime            9612486750                       # Total Idle time Per DRAM Rank
system.mem_ctrl_1.memoryStateTime::IDLE      24934500                       # Time in different power states
system.mem_ctrl_1.memoryStateTime::REF      202020000                       # Time in different power states
system.mem_ctrl_1.memoryStateTime::SREF    5123143000                       # Time in different power states
system.mem_ctrl_1.memoryStateTime::PRE_PDN    497584500                       # Time in different power states
system.mem_ctrl_1.memoryStateTime::ACT     1353586000                       # Time in different power states
system.mem_ctrl_1.memoryStateTime::ACT_PDN   3991922000                       # Time in different power states
system.pwrStateResidencyTicks::UNDEFINED  11193190000                       # Cumulative time (in ticks) in various power states
system.cpu.branchPred.lookups                 1204884                       # Number of BP lookups
system.cpu.branchPred.condPredicted           1204884                       # Number of conditional branches predicted
system.cpu.branchPred.condIncorrect               959                       # Number of conditional branches incorrect
system.cpu.branchPred.BTBLookups              1204432                       # Number of BTB lookups
system.cpu.branchPred.BTBHits                       0                       # Number of BTB hits
system.cpu.branchPred.BTBCorrect                    0                       # Number of correct BTB predictions (this stat may not work properly.
system.cpu.branchPred.BTBHitPct              0.000000                       # BTB Hit Percentage
system.cpu.branchPred.usedRAS                     358                       # Number of times the RAS was used to get a target.
system.cpu.branchPred.RASInCorrect                155                       # Number of incorrect RAS predictions.
system.cpu.branchPred.indirectLookups         1204432                       # Number of indirect predictor lookups.
system.cpu.branchPred.indirectHits            1200681                       # Number of indirect target hits.
system.cpu.branchPred.indirectMisses             3751                       # Number of indirect misses.
system.cpu.branchPredindirectMispredicted          750                       # Number of mispredicted indirect branches.
system.cpu.dtb.walker.pwrStateResidencyTicks::UNDEFINED  11193190000                       # Cumulative time (in ticks) in various power states
system.cpu.dtb.rdAccesses                     6003255                       # TLB accesses on read requests
system.cpu.dtb.wrAccesses                     2402188                       # TLB accesses on write requests
system.cpu.dtb.rdMisses                           103                       # TLB misses on read requests
system.cpu.dtb.wrMisses                          1203                       # TLB misses on write requests
system.cpu.apic_clk_domain.clock                 8000                       # Clock period in ticks
system.cpu.interrupts.pwrStateResidencyTicks::UNDEFINED  11193190000                       # Cumulative time (in ticks) in various power states
system.cpu.itb.walker.pwrStateResidencyTicks::UNDEFINED  11193190000                       # Cumulative time (in ticks) in various power states
system.cpu.itb.rdAccesses                           0                       # TLB accesses on read requests
system.cpu.itb.wrAccesses                     2404874                       # TLB accesses on write requests
system.cpu.itb.rdMisses                             0                       # TLB misses on read requests
system.cpu.itb.wrMisses                           190                       # TLB misses on write requests
system.cpu.workload.numSyscalls                    13                       # Number of system calls
system.cpu.pwrStateResidencyTicks::ON     11193190000                       # Cumulative time (in ticks) in various power states
system.cpu.numCycles                         22386381                       # number of cpu cycles simulated
system.cpu.numWorkItemsStarted                      0                       # number of work items this cpu started
system.cpu.numWorkItemsCompleted                    0                       # number of work items this cpu completed
system.cpu.fetch.icacheStallCycles              36592                       # Number of cycles fetch is stalled on an Icache miss
system.cpu.fetch.Insts                       12023587                       # Number of instructions fetch has processed
system.cpu.fetch.Branches                     1204884                       # Number of branches that fetch encountered
system.cpu.fetch.predictedBranches            1201039                       # Number of branches that fetch has predicted taken
system.cpu.fetch.Cycles                      22315849                       # Number of cycles fetch has run and was not squashing or blocked
system.cpu.fetch.SquashCycles                    2240                       # Number of cycles fetch has spent squashing
system.cpu.fetch.MiscStallCycles                  119                       # Number of cycles fetch has spent waiting on interrupts, or bad addresses, or out of MSHRs
system.cpu.fetch.PendingTrapStallCycles          1349                       # Number of stall cycles due to pending traps
system.cpu.fetch.PendingQuiesceStallCycles           20                       # Number of stall cycles due to pending quiesce instructions
system.cpu.fetch.CacheLines                   2404731                       # Number of cache lines fetched
system.cpu.fetch.IcacheSquashes                   315                       # Number of outstanding Icache misses that were squashed
system.cpu.fetch.rateDist::samples           22355049                       # Number of instructions fetched each cycle (Total)
system.cpu.fetch.rateDist::mean              0.914586                       # Number of instructions fetched each cycle (Total)
system.cpu.fetch.rateDist::stdev             0.968989                       # Number of instructions fetched each cycle (Total)
system.cpu.fetch.rateDist::underflows               0      0.00%      0.00% # Number of instructions fetched each cycle (Total)
system.cpu.fetch.rateDist::0                 11531281     51.58%     51.58% # Number of instructions fetched each cycle (Total)
system.cpu.fetch.rateDist::1                  1201930      5.38%     56.96% # Number of instructions fetched each cycle (Total)
system.cpu.fetch.rateDist::2                  9621838     43.04%    100.00% # Number of instructions fetched each cycle (Total)
system.cpu.fetch.rateDist::overflows                0      0.00%    100.00% # Number of instructions fetched each cycle (Total)
system.cpu.fetch.rateDist::min_value                0                       # Number of instructions fetched each cycle (Total)
system.cpu.fetch.rateDist::max_value                2                       # Number of instructions fetched each cycle (Total)
system.cpu.fetch.rateDist::total             22355049                       # Number of instructions fetched each cycle (Total)
system.cpu.fetch.branchRate                  0.053822                       # Number of branch fetches per cycle
system.cpu.fetch.rate                        0.537094                       # Number of inst fetches per cycle
system.cpu.decode.IdleCycles                   937487                       # Number of cycles decode is idle
system.cpu.decode.BlockedCycles              11194685                       # Number of cycles decode is blocked
system.cpu.decode.RunCycles                   9021323                       # Number of cycles decode is running
system.cpu.decode.UnblockCycles               1200434                       # Number of cycles decode is unblocking
system.cpu.decode.SquashCycles                   1120                       # Number of cycles decode is squashing
system.cpu.decode.DecodedInsts               20439581                       # Number of instructions handled by decode
system.cpu.decode.SquashedInsts                  2241                       # Number of squashed instructions handled by decode
system.cpu.rename.SquashCycles                   1120                       # Number of cycles rename is squashing
system.cpu.rename.IdleCycles                  1539639                       # Number of cycles rename is idle
system.cpu.rename.BlockCycles                    5952                       # Number of cycles rename is blocking
system.cpu.rename.serializeStallCycles           1224                       # count of cycles rename stalled for serializing inst
system.cpu.rename.RunCycles                   9619565                       # Number of cycles rename is running
system.cpu.rename.UnblockCycles              11187549                       # Number of cycles rename is unblocking
system.cpu.rename.RenamedInsts               20437009                       # Number of instructions processed by rename
system.cpu.rename.SquashedInsts                  1126                       # Number of squashed instructions processed by rename
system.cpu.rename.ROBFullEvents                    71                       # Number of times rename has blocked due to ROB full
system.cpu.rename.IQFullEvents                 225120                       # Number of times rename has blocked due to IQ full
system.cpu.rename.LQFullEvents                     70                       # Number of times rename has blocked due to LQ full
system.cpu.rename.SQFullEvents               10362135                       # Number of times rename has blocked due to SQ full
system.cpu.rename.FullRegisterEvents               16                       # Number of times there has been no free registers
system.cpu.rename.RenamedOperands            24040548                       # Number of destination operands rename has renamed
system.cpu.rename.RenameLookups              50491195                       # Number of register rename lookups that rename has made
system.cpu.rename.int_rename_lookups         33651822                       # Number of integer rename lookups
system.cpu.rename.fp_rename_lookups              4054                       # Number of floating rename lookups
system.cpu.rename.CommittedMaps              24022692                       # Number of HB maps that are committed
system.cpu.rename.UndoneMaps                    17856                       # Number of HB maps that are undone due to squashing
system.cpu.rename.serializingInsts                 27                       # count of serializing insts renamed
system.cpu.rename.tempSerializingInsts             24                       # count of temporary serializing insts renamed
system.cpu.rename.skidInsts                   1500903                       # count of insts added to the skid buffer
system.cpu.memDep0.insertedLoads              6004062                       # Number of loads inserted to the mem dependence unit.
system.cpu.memDep0.insertedStores             2402868                       # Number of stores inserted to the mem dependence unit.
system.cpu.memDep0.conflictingLoads           4125037                       # Number of conflicting loads.
system.cpu.memDep0.conflictingStores           824984                       # Number of conflicting stores.
system.cpu.iq.iqInstsAdded                   20434300                       # Number of instructions added to the IQ (excludes non-spec)
system.cpu.iq.iqNonSpecInstsAdded                  96                       # Number of non-speculative instructions added to the IQ
system.cpu.iq.iqInstsIssued                  20430290                       # Number of instructions issued
system.cpu.iq.iqSquashedInstsIssued               512                       # Number of squashed instructions issued
system.cpu.iq.iqSquashedInstsExamined           13696                       # Number of squashed instructions iterated over during squash; mainly for profiling
system.cpu.iq.iqSquashedOperandsExamined        17564                       # Number of squashed operands that are examined and possibly removed from graph
system.cpu.iq.iqSquashedNonSpecRemoved             65                       # Number of squashed non-spec instructions that were removed
system.cpu.iq.issued_per_cycle::samples      22355049                       # Number of insts issued each cycle
system.cpu.iq.issued_per_cycle::mean         0.913900                       # Number of insts issued each cycle
system.cpu.iq.issued_per_cycle::stdev        0.866440                       # Number of insts issued each cycle
system.cpu.iq.issued_per_cycle::underflows            0      0.00%      0.00% # Number of insts issued each cycle
system.cpu.iq.issued_per_cycle::0             9436414     42.21%     42.21% # Number of insts issued each cycle
system.cpu.iq.issued_per_cycle::1             5406980     24.19%     66.40% # Number of insts issued each cycle
system.cpu.iq.issued_per_cycle::2             7511655     33.60%    100.00% # Number of insts issued each cycle
system.cpu.iq.issued_per_cycle::overflows            0      0.00%    100.00% # Number of insts issued each cycle
system.cpu.iq.issued_per_cycle::min_value            0                       # Number of insts issued each cycle
system.cpu.iq.issued_per_cycle::max_value            2                       # Number of insts issued each cycle
system.cpu.iq.issued_per_cycle::total        22355049                       # Number of insts issued each cycle
system.cpu.iq.fu_full::No_OpClass                   0      0.00%      0.00% # attempts to use FU when none available
system.cpu.iq.fu_full::IntAlu                       0      0.00%      0.00% # attempts to use FU when none available
system.cpu.iq.fu_full::IntMult                      0      0.00%      0.00% # attempts to use FU when none available
system.cpu.iq.fu_full::IntDiv                       0      0.00%      0.00% # attempts to use FU when none available
system.cpu.iq.fu_full::FloatAdd                     0      0.00%      0.00% # attempts to use FU when none available
system.cpu.iq.fu_full::FloatCmp                     0      0.00%      0.00% # attempts to use FU when none available
system.cpu.iq.fu_full::FloatCvt                     0      0.00%      0.00% # attempts to use FU when none available
system.cpu.iq.fu_full::FloatMult                    0      0.00%      0.00% # attempts to use FU when none available
system.cpu.iq.fu_full::FloatMultAcc                 0      0.00%      0.00% # attempts to use FU when none available
system.cpu.iq.fu_full::FloatDiv                     0      0.00%      0.00% # attempts to use FU when none available
system.cpu.iq.fu_full::FloatMisc                    0      0.00%      0.00% # attempts to use FU when none available
system.cpu.iq.fu_full::FloatSqrt                    0      0.00%      0.00% # attempts to use FU when none available
system.cpu.iq.fu_full::SimdAdd                    249      0.01%      0.01% # attempts to use FU when none available
system.cpu.iq.fu_full::SimdAddAcc                   0      0.00%      0.01% # attempts to use FU when none available
system.cpu.iq.fu_full::SimdAlu                     59      0.00%      0.01% # attempts to use FU when none available
system.cpu.iq.fu_full::SimdCmp                      0      0.00%      0.01% # attempts to use FU when none available
system.cpu.iq.fu_full::SimdCvt                     32      0.00%      0.01% # attempts to use FU when none available
system.cpu.iq.fu_full::SimdMisc                   123      0.00%      0.01% # attempts to use FU when none available
system.cpu.iq.fu_full::SimdMult                     0      0.00%      0.01% # attempts to use FU when none available
system.cpu.iq.fu_full::SimdMultAcc                  0      0.00%      0.01% # attempts to use FU when none available
system.cpu.iq.fu_full::SimdShift                  124      0.00%      0.02% # attempts to use FU when none available
system.cpu.iq.fu_full::SimdShiftAcc                 0      0.00%      0.02% # attempts to use FU when none available
system.cpu.iq.fu_full::SimdSqrt                     0      0.00%      0.02% # attempts to use FU when none available
system.cpu.iq.fu_full::SimdFloatAdd                 0      0.00%      0.02% # attempts to use FU when none available
system.cpu.iq.fu_full::SimdFloatAlu                 0      0.00%      0.02% # attempts to use FU when none available
system.cpu.iq.fu_full::SimdFloatCmp                 0      0.00%      0.02% # attempts to use FU when none available
system.cpu.iq.fu_full::SimdFloatCvt                 0      0.00%      0.02% # attempts to use FU when none available
system.cpu.iq.fu_full::SimdFloatDiv                 0      0.00%      0.02% # attempts to use FU when none available
system.cpu.iq.fu_full::SimdFloatMisc                0      0.00%      0.02% # attempts to use FU when none available
system.cpu.iq.fu_full::SimdFloatMult                0      0.00%      0.02% # attempts to use FU when none available
system.cpu.iq.fu_full::SimdFloatMultAcc             0      0.00%      0.02% # attempts to use FU when none available
system.cpu.iq.fu_full::SimdFloatSqrt                0      0.00%      0.02% # attempts to use FU when none available
system.cpu.iq.fu_full::SimdAes                      0      0.00%      0.02% # attempts to use FU when none available
system.cpu.iq.fu_full::SimdAesMix                   0      0.00%      0.02% # attempts to use FU when none available
system.cpu.iq.fu_full::SimdSha1Hash                 0      0.00%      0.02% # attempts to use FU when none available
system.cpu.iq.fu_full::SimdSha1Hash2                0      0.00%      0.02% # attempts to use FU when none available
system.cpu.iq.fu_full::SimdSha256Hash               0      0.00%      0.02% # attempts to use FU when none available
system.cpu.iq.fu_full::SimdSha256Hash2              0      0.00%      0.02% # attempts to use FU when none available
system.cpu.iq.fu_full::SimdShaSigma2                0      0.00%      0.02% # attempts to use FU when none available
system.cpu.iq.fu_full::SimdShaSigma3                0      0.00%      0.02% # attempts to use FU when none available
system.cpu.iq.fu_full::MemRead                3675420     99.98%    100.00% # attempts to use FU when none available
system.cpu.iq.fu_full::MemWrite                   166      0.00%    100.00% # attempts to use FU when none available
system.cpu.iq.fu_full::FloatMemRead                 0      0.00%    100.00% # attempts to use FU when none available
system.cpu.iq.fu_full::FloatMemWrite                0      0.00%    100.00% # attempts to use FU when none available
system.cpu.iq.fu_full::IprAccess                    0      0.00%    100.00% # attempts to use FU when none available
system.cpu.iq.fu_full::InstPrefetch                 0      0.00%    100.00% # attempts to use FU when none available
system.cpu.iq.FU_type_0::No_OpClass               394      0.00%      0.00% # Type of FU issued
system.cpu.iq.FU_type_0::IntAlu              12022904     58.85%     58.85% # Type of FU issued
system.cpu.iq.FU_type_0::IntMult                   11      0.00%     58.85% # Type of FU issued
system.cpu.iq.FU_type_0::IntDiv                    31      0.00%     58.85% # Type of FU issued
system.cpu.iq.FU_type_0::FloatAdd                  12      0.00%     58.85% # Type of FU issued
system.cpu.iq.FU_type_0::FloatCmp                   0      0.00%     58.85% # Type of FU issued
system.cpu.iq.FU_type_0::FloatCvt                   0      0.00%     58.85% # Type of FU issued
system.cpu.iq.FU_type_0::FloatMult                  0      0.00%     58.85% # Type of FU issued
system.cpu.iq.FU_type_0::FloatMultAcc               0      0.00%     58.85% # Type of FU issued
system.cpu.iq.FU_type_0::FloatDiv                   0      0.00%     58.85% # Type of FU issued
system.cpu.iq.FU_type_0::FloatMisc                  0      0.00%     58.85% # Type of FU issued
system.cpu.iq.FU_type_0::FloatSqrt                  0      0.00%     58.85% # Type of FU issued
system.cpu.iq.FU_type_0::SimdAdd                  375      0.00%     58.85% # Type of FU issued
system.cpu.iq.FU_type_0::SimdAddAcc                 0      0.00%     58.85% # Type of FU issued
system.cpu.iq.FU_type_0::SimdAlu                   88      0.00%     58.85% # Type of FU issued
system.cpu.iq.FU_type_0::SimdCmp                    0      0.00%     58.85% # Type of FU issued
system.cpu.iq.FU_type_0::SimdCvt                  136      0.00%     58.85% # Type of FU issued
system.cpu.iq.FU_type_0::SimdMisc                 240      0.00%     58.85% # Type of FU issued
system.cpu.iq.FU_type_0::SimdMult                   0      0.00%     58.85% # Type of FU issued
system.cpu.iq.FU_type_0::SimdMultAcc                0      0.00%     58.85% # Type of FU issued
system.cpu.iq.FU_type_0::SimdShift                186      0.00%     58.86% # Type of FU issued
system.cpu.iq.FU_type_0::SimdShiftAcc               0      0.00%     58.86% # Type of FU issued
system.cpu.iq.FU_type_0::SimdSqrt                   0      0.00%     58.86% # Type of FU issued
system.cpu.iq.FU_type_0::SimdFloatAdd               0      0.00%     58.86% # Type of FU issued
system.cpu.iq.FU_type_0::SimdFloatAlu               0      0.00%     58.86% # Type of FU issued
system.cpu.iq.FU_type_0::SimdFloatCmp               0      0.00%     58.86% # Type of FU issued
system.cpu.iq.FU_type_0::SimdFloatCvt               0      0.00%     58.86% # Type of FU issued
system.cpu.iq.FU_type_0::SimdFloatDiv               0      0.00%     58.86% # Type of FU issued
system.cpu.iq.FU_type_0::SimdFloatMisc              0      0.00%     58.86% # Type of FU issued
system.cpu.iq.FU_type_0::SimdFloatMult              0      0.00%     58.86% # Type of FU issued
system.cpu.iq.FU_type_0::SimdFloatMultAcc            0      0.00%     58.86% # Type of FU issued
system.cpu.iq.FU_type_0::SimdFloatSqrt              0      0.00%     58.86% # Type of FU issued
system.cpu.iq.FU_type_0::SimdAes                    0      0.00%     58.86% # Type of FU issued
system.cpu.iq.FU_type_0::SimdAesMix                 0      0.00%     58.86% # Type of FU issued
system.cpu.iq.FU_type_0::SimdSha1Hash               0      0.00%     58.86% # Type of FU issued
system.cpu.iq.FU_type_0::SimdSha1Hash2              0      0.00%     58.86% # Type of FU issued
system.cpu.iq.FU_type_0::SimdSha256Hash             0      0.00%     58.86% # Type of FU issued
system.cpu.iq.FU_type_0::SimdSha256Hash2            0      0.00%     58.86% # Type of FU issued
system.cpu.iq.FU_type_0::SimdShaSigma2              0      0.00%     58.86% # Type of FU issued
system.cpu.iq.FU_type_0::SimdShaSigma3              0      0.00%     58.86% # Type of FU issued
system.cpu.iq.FU_type_0::MemRead              6003468     29.39%     88.24% # Type of FU issued
system.cpu.iq.FU_type_0::MemWrite             2401920     11.76%    100.00% # Type of FU issued
system.cpu.iq.FU_type_0::FloatMemRead              88      0.00%    100.00% # Type of FU issued
system.cpu.iq.FU_type_0::FloatMemWrite            437      0.00%    100.00% # Type of FU issued
system.cpu.iq.FU_type_0::IprAccess                  0      0.00%    100.00% # Type of FU issued
system.cpu.iq.FU_type_0::InstPrefetch               0      0.00%    100.00% # Type of FU issued
system.cpu.iq.FU_type_0::total               20430290                       # Type of FU issued
system.cpu.iq.rate                           0.912621                       # Inst issue rate
system.cpu.iq.fu_busy_cnt                     3676173                       # FU busy when requested
system.cpu.iq.fu_busy_rate                   0.179937                       # FU busy rate (busy events/executed inst)
system.cpu.iq.int_inst_queue_reads           66887546                       # Number of integer instruction queue reads
system.cpu.iq.int_inst_queue_writes          20445931                       # Number of integer instruction queue writes
system.cpu.iq.int_inst_queue_wakeup_accesses     20425315                       # Number of integer instruction queue wakeup accesses
system.cpu.iq.fp_inst_queue_reads                4768                       # Number of floating instruction queue reads
system.cpu.iq.fp_inst_queue_writes               2213                       # Number of floating instruction queue writes
system.cpu.iq.fp_inst_queue_wakeup_accesses         2065                       # Number of floating instruction queue wakeup accesses
system.cpu.iq.vec_inst_queue_reads                  0                       # Number of vector instruction queue reads
system.cpu.iq.vec_inst_queue_writes                 0                       # Number of vector instruction queue writes
system.cpu.iq.vec_inst_queue_wakeup_accesses            0                       # Number of vector instruction queue wakeup accesses
system.cpu.iq.int_alu_accesses               24103392                       # Number of integer alu accesses
system.cpu.iq.fp_alu_accesses                    2677                       # Number of floating point alu accesses
system.cpu.iq.vec_alu_accesses                      0                       # Number of vector alu accesses
system.cpu.iew.lsq.thread0.forwLoads          4800151                       # Number of loads that had data forwarded from stores
system.cpu.iew.lsq.thread0.invAddrLoads             0                       # Number of loads ignored due to an invalid address
system.cpu.iew.lsq.thread0.squashedLoads         1770                       # Number of loads squashed
system.cpu.iew.lsq.thread0.ignoredResponses           10                       # Number of memory responses ignored because the instruction is squashed
system.cpu.iew.lsq.thread0.memOrderViolation           52                       # Number of memory ordering violations
system.cpu.iew.lsq.thread0.squashedStores         1032                       # Number of stores squashed
system.cpu.iew.lsq.thread0.invAddrSwpfs             0                       # Number of software prefetches ignored due to an invalid address
system.cpu.iew.lsq.thread0.blockedLoads             0                       # Number of blocked loads due to partial load-store forwarding
system.cpu.iew.lsq.thread0.rescheduledLoads            1                       # Number of loads that were rescheduled
system.cpu.iew.lsq.thread0.cacheBlocked             0                       # Number of times an access to memory failed due to the cache being blocked
system.cpu.iew.iewIdleCycles                        0                       # Number of cycles IEW is idle
system.cpu.iew.iewSquashCycles                   1120                       # Number of cycles IEW is squashing
system.cpu.iew.iewBlockCycles                    1779                       # Number of cycles IEW is blocking
system.cpu.iew.iewUnblockCycles                  1923                       # Number of cycles IEW is unblocking
system.cpu.iew.iewDispatchedInsts            20434396                       # Number of instructions dispatched to IQ
system.cpu.iew.iewDispSquashedInsts               965                       # Number of squashed instructions skipped by dispatch
system.cpu.iew.iewDispLoadInsts               6004062                       # Number of dispatched load instructions
system.cpu.iew.iewDispStoreInsts              2402868                       # Number of dispatched store instructions
system.cpu.iew.iewDispNonSpecInsts                 45                       # Number of dispatched non-speculative instructions
system.cpu.iew.iewIQFullEvents                     15                       # Number of times the IQ has become full, causing a stall
system.cpu.iew.iewLSQFullEvents                  1888                       # Number of times the LSQ has become full, causing a stall
system.cpu.iew.memOrderViolationEvents             52                       # Number of memory order violations
system.cpu.iew.predictedTakenIncorrect            191                       # Number of branches that were predicted taken incorrectly
system.cpu.iew.predictedNotTakenIncorrect         1018                       # Number of branches that were predicted not taken incorrectly
system.cpu.iew.branchMispredicts                 1209                       # Number of branch mispredicts detected at execute
system.cpu.iew.iewExecutedInsts              20428025                       # Number of executed instructions
system.cpu.iew.iewExecLoadInsts               6003249                       # Number of load instructions executed
system.cpu.iew.iewExecSquashedInsts              2265                       # Number of squashed instructions skipped in execute
system.cpu.iew.exec_swp                             0                       # number of swp insts executed
system.cpu.iew.exec_nop                             0                       # number of nop insts executed
system.cpu.iew.exec_refs                      8405437                       # number of memory reference insts executed
system.cpu.iew.exec_branches                  1202608                       # Number of branches executed
system.cpu.iew.exec_stores                    2402188                       # Number of stores executed
system.cpu.iew.exec_rate                     0.912520                       # Inst execution rate
system.cpu.iew.wb_sent                       20427715                       # cumulative count of insts sent to commit
system.cpu.iew.wb_count                      20427380                       # cumulative count of insts written-back
system.cpu.iew.wb_producers                  16518987                       # num instructions producing a value
system.cpu.iew.wb_consumers                  18778562                       # num instructions consuming a value
system.cpu.iew.wb_rate                       0.912491                       # insts written-back per cycle
system.cpu.iew.wb_fanout                     0.879673                       # average fanout of values written-back
system.cpu.commit.commitSquashedInsts           12333                       # The number of squashed insts skipped by commit
system.cpu.commit.commitNonSpecStalls              31                       # The number of times commit has been forced to stall to communicate backwards
system.cpu.commit.branchMispredicts              1071                       # The number of times a branch was mispredicted
system.cpu.commit.committed_per_cycle::samples     22353608                       # Number of insts commited each cycle
system.cpu.commit.committed_per_cycle::mean     0.913530                       # Number of insts commited each cycle
system.cpu.commit.committed_per_cycle::stdev     0.926348                       # Number of insts commited each cycle
system.cpu.commit.committed_per_cycle::underflows            0      0.00%      0.00% # Number of insts commited each cycle
system.cpu.commit.committed_per_cycle::0     10641075     47.60%     47.60% # Number of insts commited each cycle
system.cpu.commit.committed_per_cycle::1      3004367     13.44%     61.04% # Number of insts commited each cycle
system.cpu.commit.committed_per_cycle::2      8708166     38.96%    100.00% # Number of insts commited each cycle
system.cpu.commit.committed_per_cycle::overflows            0      0.00%    100.00% # Number of insts commited each cycle
system.cpu.commit.committed_per_cycle::min_value            0                       # Number of insts commited each cycle
system.cpu.commit.committed_per_cycle::max_value            2                       # Number of insts commited each cycle
system.cpu.commit.committed_per_cycle::total     22353608                       # Number of insts commited each cycle
system.cpu.commit.committedInsts             12010628                       # Number of instructions committed
system.cpu.commit.committedOps               20420699                       # Number of ops (including micro ops) committed
system.cpu.commit.swp_count                         0                       # Number of s/w prefetches committed
system.cpu.commit.refs                        8404128                       # Number of memory references committed
system.cpu.commit.loads                       6002292                       # Number of loads committed
system.cpu.commit.membars                          12                       # Number of memory barriers committed
system.cpu.commit.branches                    1202191                       # Number of branches committed
system.cpu.commit.vec_insts                         0                       # Number of committed Vector instructions.
system.cpu.commit.fp_insts                       2027                       # Number of committed floating point instructions.
system.cpu.commit.int_insts                  20419098                       # Number of committed integer instructions.
system.cpu.commit.function_calls                  190                       # Number of function calls committed.
system.cpu.commit.op_class_0::No_OpClass          108      0.00%      0.00% # Class of committed instruction
system.cpu.commit.op_class_0::IntAlu         12015404     58.84%     58.84% # Class of committed instruction
system.cpu.commit.op_class_0::IntMult              11      0.00%     58.84% # Class of committed instruction
system.cpu.commit.op_class_0::IntDiv               28      0.00%     58.84% # Class of committed instruction
system.cpu.commit.op_class_0::FloatAdd             12      0.00%     58.84% # Class of committed instruction
system.cpu.commit.op_class_0::FloatCmp              0      0.00%     58.84% # Class of committed instruction
system.cpu.commit.op_class_0::FloatCvt              0      0.00%     58.84% # Class of committed instruction
system.cpu.commit.op_class_0::FloatMult             0      0.00%     58.84% # Class of committed instruction
system.cpu.commit.op_class_0::FloatMultAcc            0      0.00%     58.84% # Class of committed instruction
system.cpu.commit.op_class_0::FloatDiv              0      0.00%     58.84% # Class of committed instruction
system.cpu.commit.op_class_0::FloatMisc             0      0.00%     58.84% # Class of committed instruction
system.cpu.commit.op_class_0::FloatSqrt             0      0.00%     58.84% # Class of committed instruction
system.cpu.commit.op_class_0::SimdAdd             374      0.00%     58.84% # Class of committed instruction
system.cpu.commit.op_class_0::SimdAddAcc            0      0.00%     58.84% # Class of committed instruction
system.cpu.commit.op_class_0::SimdAlu              82      0.00%     58.84% # Class of committed instruction
system.cpu.commit.op_class_0::SimdCmp               0      0.00%     58.84% # Class of committed instruction
system.cpu.commit.op_class_0::SimdCvt             128      0.00%     58.84% # Class of committed instruction
system.cpu.commit.op_class_0::SimdMisc            238      0.00%     58.84% # Class of committed instruction
system.cpu.commit.op_class_0::SimdMult              0      0.00%     58.84% # Class of committed instruction
system.cpu.commit.op_class_0::SimdMultAcc            0      0.00%     58.84% # Class of committed instruction
system.cpu.commit.op_class_0::SimdShift           186      0.00%     58.85% # Class of committed instruction
system.cpu.commit.op_class_0::SimdShiftAcc            0      0.00%     58.85% # Class of committed instruction
system.cpu.commit.op_class_0::SimdSqrt              0      0.00%     58.85% # Class of committed instruction
system.cpu.commit.op_class_0::SimdFloatAdd            0      0.00%     58.85% # Class of committed instruction
system.cpu.commit.op_class_0::SimdFloatAlu            0      0.00%     58.85% # Class of committed instruction
system.cpu.commit.op_class_0::SimdFloatCmp            0      0.00%     58.85% # Class of committed instruction
system.cpu.commit.op_class_0::SimdFloatCvt            0      0.00%     58.85% # Class of committed instruction
system.cpu.commit.op_class_0::SimdFloatDiv            0      0.00%     58.85% # Class of committed instruction
system.cpu.commit.op_class_0::SimdFloatMisc            0      0.00%     58.85% # Class of committed instruction
system.cpu.commit.op_class_0::SimdFloatMult            0      0.00%     58.85% # Class of committed instruction
system.cpu.commit.op_class_0::SimdFloatMultAcc            0      0.00%     58.85% # Class of committed instruction
system.cpu.commit.op_class_0::SimdFloatSqrt            0      0.00%     58.85% # Class of committed instruction
system.cpu.commit.op_class_0::SimdAes               0      0.00%     58.85% # Class of committed instruction
system.cpu.commit.op_class_0::SimdAesMix            0      0.00%     58.85% # Class of committed instruction
system.cpu.commit.op_class_0::SimdSha1Hash            0      0.00%     58.85% # Class of committed instruction
system.cpu.commit.op_class_0::SimdSha1Hash2            0      0.00%     58.85% # Class of committed instruction
system.cpu.commit.op_class_0::SimdSha256Hash            0      0.00%     58.85% # Class of committed instruction
system.cpu.commit.op_class_0::SimdSha256Hash2            0      0.00%     58.85% # Class of committed instruction
system.cpu.commit.op_class_0::SimdShaSigma2            0      0.00%     58.85% # Class of committed instruction
system.cpu.commit.op_class_0::SimdShaSigma3            0      0.00%     58.85% # Class of committed instruction
system.cpu.commit.op_class_0::MemRead         6002224     29.39%     88.24% # Class of committed instruction
system.cpu.commit.op_class_0::MemWrite        2401419     11.76%    100.00% # Class of committed instruction
system.cpu.commit.op_class_0::FloatMemRead           68      0.00%    100.00% # Class of committed instruction
system.cpu.commit.op_class_0::FloatMemWrite          417      0.00%    100.00% # Class of committed instruction
system.cpu.commit.op_class_0::IprAccess             0      0.00%    100.00% # Class of committed instruction
system.cpu.commit.op_class_0::InstPrefetch            0      0.00%    100.00% # Class of committed instruction
system.cpu.commit.op_class_0::total          20420699                       # Class of committed instruction
system.cpu.commit.bw_lim_events               8708166                       # number cycles where commit BW limit reached
system.cpu.rob.rob_reads                     34078474                       # The number of ROB reads
system.cpu.rob.rob_writes                    40867505                       # The number of ROB writes
system.cpu.timesIdled                             332                       # Number of times that the entire CPU went into an idle state and unscheduled itself
system.cpu.idleCycles                           31332                       # Total number of cycles that the CPU has spent unscheduled due to idling
system.cpu.committedInsts                    12010628                       # Number of Instructions Simulated
system.cpu.committedOps                      20420699                       # Number of Ops (including micro ops) Simulated
system.cpu.cpi                               1.863881                       # CPI: Cycles Per Instruction
system.cpu.cpi_total                         1.863881                       # CPI: Total CPI of All Threads
system.cpu.ipc                               0.536515                       # IPC: Instructions Per Cycle
system.cpu.ipc_total                         0.536515                       # IPC: Total IPC of All Threads
system.cpu.int_regfile_reads                 33636776                       # number of integer regfile reads
system.cpu.int_regfile_writes                16820961                       # number of integer regfile writes
system.cpu.fp_regfile_reads                      3970                       # number of floating regfile reads
system.cpu.fp_regfile_writes                     1573                       # number of floating regfile writes
system.cpu.cc_regfile_reads                   6012587                       # number of cc regfile reads
system.cpu.cc_regfile_writes                  7207539                       # number of cc regfile writes
system.cpu.misc_regfile_reads                10811933                       # number of misc regfile reads
system.cpu.dcache.tags.pwrStateResidencyTicks::UNDEFINED  11193190000                       # Cumulative time (in ticks) in various power states
system.cpu.dcache.tags.tagsinuse           255.523044                       # Cycle average of tags in use
system.cpu.dcache.tags.total_refs             3604722                       # Total number of references to valid blocks.
system.cpu.dcache.tags.sampled_refs             75302                       # Sample count of references to valid blocks.
system.cpu.dcache.tags.avg_refs             47.870203                       # Average number of references to valid blocks.
system.cpu.dcache.tags.warmup_cycle            170000                       # Cycle when the warmup percentage was hit.
system.cpu.dcache.tags.occ_blocks::.cpu.data   255.523044                       # Average occupied blocks per requestor
system.cpu.dcache.tags.occ_percent::.cpu.data     0.998137                       # Average percentage of cache occupancy
system.cpu.dcache.tags.occ_percent::total     0.998137                       # Average percentage of cache occupancy
system.cpu.dcache.tags.occ_task_id_blocks::1024          256                       # Occupied blocks per task id
system.cpu.dcache.tags.age_task_id_blocks_1024::0           29                       # Occupied blocks per task id
system.cpu.dcache.tags.age_task_id_blocks_1024::1          226                       # Occupied blocks per task id
system.cpu.dcache.tags.age_task_id_blocks_1024::4            1                       # Occupied blocks per task id
system.cpu.dcache.tags.occ_task_id_percent::1024            1                       # Percentage of cache occupancy per task id
system.cpu.dcache.tags.tag_accesses          28914246                       # Number of tag accesses
system.cpu.dcache.tags.data_accesses         28914246                       # Number of data accesses
system.cpu.dcache.pwrStateResidencyTicks::UNDEFINED  11193190000                       # Cumulative time (in ticks) in various power states
system.cpu.dcache.ReadReq_hits::.cpu.data      1202718                       # number of ReadReq hits
system.cpu.dcache.ReadReq_hits::total         1202718                       # number of ReadReq hits
system.cpu.dcache.WriteReq_hits::.cpu.data      2326702                       # number of WriteReq hits
system.cpu.dcache.WriteReq_hits::total        2326702                       # number of WriteReq hits
system.cpu.dcache.demand_hits::.cpu.data      3529420                       # number of demand (read+write) hits
system.cpu.dcache.demand_hits::total          3529420                       # number of demand (read+write) hits
system.cpu.dcache.overall_hits::.cpu.data      3529420                       # number of overall hits
system.cpu.dcache.overall_hits::total         3529420                       # number of overall hits
system.cpu.dcache.ReadReq_misses::.cpu.data          314                       # number of ReadReq misses
system.cpu.dcache.ReadReq_misses::total           314                       # number of ReadReq misses
system.cpu.dcache.WriteReq_misses::.cpu.data        75134                       # number of WriteReq misses
system.cpu.dcache.WriteReq_misses::total        75134                       # number of WriteReq misses
system.cpu.dcache.demand_misses::.cpu.data        75448                       # number of demand (read+write) misses
system.cpu.dcache.demand_misses::total          75448                       # number of demand (read+write) misses
system.cpu.dcache.overall_misses::.cpu.data        75448                       # number of overall misses
[...]
system.l3cache.tags.occ_blocks::.cpu.data 25818.150551                       # Average occupied blocks per requestor
system.l3cache.tags.occ_percent::.cpu.inst     0.004535                       # Average percentage of cache occupancy
system.l3cache.tags.occ_percent::.cpu.data     0.787907                       # Average percentage of cache occupancy
system.l3cache.tags.occ_percent::total       0.792442                       # Average percentage of cache occupancy
system.l3cache.tags.occ_task_id_blocks::1024        32768                       # Occupied blocks per task id
system.l3cache.tags.age_task_id_blocks_1024::0          158                       # Occupied blocks per task id
system.l3cache.tags.age_task_id_blocks_1024::1          660                       # Occupied blocks per task id
system.l3cache.tags.age_task_id_blocks_1024::2         5938                       # Occupied blocks per task id
system.l3cache.tags.age_task_id_blocks_1024::3        26012                       # Occupied blocks per task id
system.l3cache.tags.occ_task_id_percent::1024            1                       # Percentage of cache occupancy per task id
system.l3cache.tags.tag_accesses              2430631                       # Number of tag accesses
system.l3cache.tags.data_accesses             2430631                       # Number of data accesses
system.l3cache.pwrStateResidencyTicks::UNDEFINED  11193190000                       # Cumulative time (in ticks) in various power states
system.l3cache.WritebackDirty_hits::.writebacks        71324                       # number of WritebackDirty hits
system.l3cache.WritebackDirty_hits::total        71324                       # number of WritebackDirty hits
system.l3cache.ReadSharedReq_hits::.cpu.data            3                       # number of ReadSharedReq hits
system.l3cache.ReadSharedReq_hits::total            3                       # number of ReadSharedReq hits
system.l3cache.demand_hits::.cpu.data               3                       # number of demand (read+write) hits
system.l3cache.demand_hits::total                   3                       # number of demand (read+write) hits
system.l3cache.overall_hits::.cpu.data              3                       # number of overall hits
system.l3cache.overall_hits::total                  3                       # number of overall hits
system.l3cache.ReadExReq_misses::.cpu.data        75131                       # number of ReadExReq misses
system.l3cache.ReadExReq_misses::total          75131                       # number of ReadExReq misses
system.l3cache.ReadSharedReq_misses::.cpu.inst          555                       # number of ReadSharedReq misses
system.l3cache.ReadSharedReq_misses::.cpu.data          161                       # number of ReadSharedReq misses
system.l3cache.ReadSharedReq_misses::total          716                       # number of ReadSharedReq misses
system.l3cache.demand_misses::.cpu.inst           555                       # number of demand (read+write) misses
system.l3cache.demand_misses::.cpu.data         75292                       # number of demand (read+write) misses
system.l3cache.demand_misses::total             75847                       # number of demand (read+write) misses
system.l3cache.overall_misses::.cpu.inst          555                       # number of overall misses
system.l3cache.overall_misses::.cpu.data        75292                       # number of overall misses
system.l3cache.overall_misses::total            75847                       # number of overall misses
system.l3cache.ReadExReq_miss_latency::.cpu.data   5374279000                       # number of ReadExReq miss cycles
system.l3cache.ReadExReq_miss_latency::total   5374279000                       # number of ReadExReq miss cycles
system.l3cache.ReadSharedReq_miss_latency::.cpu.inst     42016000                       # number of ReadSharedReq miss cycles
system.l3cache.ReadSharedReq_miss_latency::.cpu.data     12784000                       # number of ReadSharedReq miss cycles
system.l3cache.ReadSharedReq_miss_latency::total     54800000                       # number of ReadSharedReq miss cycles
system.l3cache.demand_miss_latency::.cpu.inst     42016000                       # number of demand (read+write) miss cycles
system.l3cache.demand_miss_latency::.cpu.data   5387063000                       # number of demand (read+write) miss cycles
system.l3cache.demand_miss_latency::total   5429079000                       # number of demand (read+write) miss cycles
system.l3cache.overall_miss_latency::.cpu.inst     42016000                       # number of overall miss cycles
system.l3cache.overall_miss_latency::.cpu.data   5387063000                       # number of overall miss cycles
system.l3cache.overall_miss_latency::total   5429079000                       # number of overall miss cycles
system.l3cache.WritebackDirty_accesses::.writebacks        71324                       # number of WritebackDirty accesses(hits+misses)
system.l3cache.WritebackDirty_accesses::total        71324                       # number of WritebackDirty accesses(hits+misses)
system.l3cache.ReadExReq_accesses::.cpu.data        75131                       # number of ReadExReq accesses(hits+misses)
system.l3cache.ReadExReq_accesses::total        75131                       # number of ReadExReq accesses(hits+misses)
system.l3cache.ReadSharedReq_accesses::.cpu.inst          555                       # number of ReadSharedReq accesses(hits+misses)
system.l3cache.ReadSharedReq_accesses::.cpu.data          164                       # number of ReadSharedReq accesses(hits+misses)
system.l3cache.ReadSharedReq_accesses::total          719                       # number of ReadSharedReq accesses(hits+misses)
system.l3cache.demand_accesses::.cpu.inst          555                       # number of demand (read+write) accesses
system.l3cache.demand_accesses::.cpu.data        75295                       # number of demand (read+write) accesses
system.l3cache.demand_accesses::total           75850                       # number of demand (read+write) accesses
system.l3cache.overall_accesses::.cpu.inst          555                       # number of overall (read+write) accesses
system.l3cache.overall_accesses::.cpu.data        75295                       # number of overall (read+write) accesses
system.l3cache.overall_accesses::total          75850                       # number of overall (read+write) accesses
system.l3cache.ReadExReq_miss_rate::.cpu.data            1                       # miss rate for ReadExReq accesses
system.l3cache.ReadExReq_miss_rate::total            1                       # miss rate for ReadExReq accesses
system.l3cache.ReadSharedReq_miss_rate::.cpu.inst            1                       # miss rate for ReadSharedReq accesses
system.l3cache.ReadSharedReq_miss_rate::.cpu.data     0.981707                       # miss rate for ReadSharedReq accesses
system.l3cache.ReadSharedReq_miss_rate::total     0.995828                       # miss rate for ReadSharedReq accesses
system.l3cache.demand_miss_rate::.cpu.inst            1                       # miss rate for demand accesses
system.l3cache.demand_miss_rate::.cpu.data     0.999960                       # miss rate for demand accesses
system.l3cache.demand_miss_rate::total       0.999960                       # miss rate for demand accesses
system.l3cache.overall_miss_rate::.cpu.inst            1                       # miss rate for overall accesses
system.l3cache.overall_miss_rate::.cpu.data     0.999960                       # miss rate for overall accesses
system.l3cache.overall_miss_rate::total      0.999960                       # miss rate for overall accesses
system.l3cache.ReadExReq_avg_miss_latency::.cpu.data 71532.110580                       # average ReadExReq miss latency
system.l3cache.ReadExReq_avg_miss_latency::total 71532.110580                       # average ReadExReq miss latency
system.l3cache.ReadSharedReq_avg_miss_latency::.cpu.inst 75704.504505                       # average ReadSharedReq miss latency
system.l3cache.ReadSharedReq_avg_miss_latency::.cpu.data 79403.726708                       # average ReadSharedReq miss latency
system.l3cache.ReadSharedReq_avg_miss_latency::total 76536.312849                       # average ReadSharedReq miss latency
system.l3cache.demand_avg_miss_latency::.cpu.inst 75704.504505                       # average overall miss latency
system.l3cache.demand_avg_miss_latency::.cpu.data 71548.942783                       # average overall miss latency
system.l3cache.demand_avg_miss_latency::total 71579.350535                       # average overall miss latency
system.l3cache.overall_avg_miss_latency::.cpu.inst 75704.504505                       # average overall miss latency
system.l3cache.overall_avg_miss_latency::.cpu.data 71548.942783                       # average overall miss latency
system.l3cache.overall_avg_miss_latency::total 71579.350535                       # average overall miss latency
system.l3cache.blocked_cycles::no_mshrs             0                       # number of cycles access was blocked
system.l3cache.blocked_cycles::no_targets            0                       # number of cycles access was blocked
system.l3cache.blocked::no_mshrs                    0                       # number of cycles access was blocked
system.l3cache.blocked::no_targets                  0                       # number of cycles access was blocked
system.l3cache.avg_blocked_cycles::no_mshrs          nan                       # average number of cycles each access was blocked
system.l3cache.avg_blocked_cycles::no_targets          nan                       # average number of cycles each access was blocked
system.l3cache.writebacks::.writebacks          42649                       # number of writebacks
system.l3cache.writebacks::total                42649                       # number of writebacks
system.l3cache.ReadExReq_mshr_misses::.cpu.data        75131                       # number of ReadExReq MSHR misses
system.l3cache.ReadExReq_mshr_misses::total        75131                       # number of ReadExReq MSHR misses
system.l3cache.ReadSharedReq_mshr_misses::.cpu.inst          555                       # number of ReadSharedReq MSHR misses
system.l3cache.ReadSharedReq_mshr_misses::.cpu.data          161                       # number of ReadSharedReq MSHR misses
system.l3cache.ReadSharedReq_mshr_misses::total          716                       # number of ReadSharedReq MSHR misses
system.l3cache.demand_mshr_misses::.cpu.inst          555                       # number of demand (read+write) MSHR misses
system.l3cache.demand_mshr_misses::.cpu.data        75292                       # number of demand (read+write) MSHR misses
system.l3cache.demand_mshr_misses::total        75847                       # number of demand (read+write) MSHR misses
system.l3cache.overall_mshr_misses::.cpu.inst          555                       # number of overall MSHR misses
system.l3cache.overall_mshr_misses::.cpu.data        75292                       # number of overall MSHR misses
system.l3cache.overall_mshr_misses::total        75847                       # number of overall MSHR misses
system.l3cache.ReadExReq_mshr_miss_latency::.cpu.data   5224017000                       # number of ReadExReq MSHR miss cycles
system.l3cache.ReadExReq_mshr_miss_latency::total   5224017000                       # number of ReadExReq MSHR miss cycles
system.l3cache.ReadSharedReq_mshr_miss_latency::.cpu.inst     40906000                       # number of ReadSharedReq MSHR miss cycles
system.l3cache.ReadSharedReq_mshr_miss_latency::.cpu.data     12462000                       # number of ReadSharedReq MSHR miss cycles
system.l3cache.ReadSharedReq_mshr_miss_latency::total     53368000                       # number of ReadSharedReq MSHR miss cycles
system.l3cache.demand_mshr_miss_latency::.cpu.inst     40906000                       # number of demand (read+write) MSHR miss cycles
system.l3cache.demand_mshr_miss_latency::.cpu.data   5236479000                       # number of demand (read+write) MSHR miss cycles
system.l3cache.demand_mshr_miss_latency::total   5277385000                       # number of demand (read+write) MSHR miss cycles
system.l3cache.overall_mshr_miss_latency::.cpu.inst     40906000                       # number of overall MSHR miss cycles
system.l3cache.overall_mshr_miss_latency::.cpu.data   5236479000                       # number of overall MSHR miss cycles
system.l3cache.overall_mshr_miss_latency::total   5277385000                       # number of overall MSHR miss cycles
system.l3cache.ReadExReq_mshr_miss_rate::.cpu.data            1                       # mshr miss rate for ReadExReq accesses
system.l3cache.ReadExReq_mshr_miss_rate::total            1                       # mshr miss rate for ReadExReq accesses
system.l3cache.ReadSharedReq_mshr_miss_rate::.cpu.inst            1                       # mshr miss rate for ReadSharedReq accesses
system.l3cache.ReadSharedReq_mshr_miss_rate::.cpu.data     0.981707                       # mshr miss rate for ReadSharedReq accesses
system.l3cache.ReadSharedReq_mshr_miss_rate::total     0.995828                       # mshr miss rate for ReadSharedReq accesses
system.l3cache.demand_mshr_miss_rate::.cpu.inst            1                       # mshr miss rate for demand accesses
system.l3cache.demand_mshr_miss_rate::.cpu.data     0.999960                       # mshr miss rate for demand accesses
system.l3cache.demand_mshr_miss_rate::total     0.999960                       # mshr miss rate for demand accesses
system.l3cache.overall_mshr_miss_rate::.cpu.inst            1                       # mshr miss rate for overall accesses
system.l3cache.overall_mshr_miss_rate::.cpu.data     0.999960                       # mshr miss rate for overall accesses
system.l3cache.overall_mshr_miss_rate::total     0.999960                       # mshr miss rate for overall accesses
system.l3cache.ReadExReq_avg_mshr_miss_latency::.cpu.data 69532.110580                       # average ReadExReq mshr miss latency
system.l3cache.ReadExReq_avg_mshr_miss_latency::total 69532.110580                       # average ReadExReq mshr miss latency
system.l3cache.ReadSharedReq_avg_mshr_miss_latency::.cpu.inst 73704.504505                       # average ReadSharedReq mshr miss latency
system.l3cache.ReadSharedReq_avg_mshr_miss_latency::.cpu.data 77403.726708                       # average ReadSharedReq mshr miss latency
system.l3cache.ReadSharedReq_avg_mshr_miss_latency::total 74536.312849                       # average ReadSharedReq mshr miss latency
system.l3cache.demand_avg_mshr_miss_latency::.cpu.inst 73704.504505                       # average overall mshr miss latency
system.l3cache.demand_avg_mshr_miss_latency::.cpu.data 69548.942783                       # average overall mshr miss latency
system.l3cache.demand_avg_mshr_miss_latency::total 69579.350535                       # average overall mshr miss latency
system.l3cache.overall_avg_mshr_miss_latency::.cpu.inst 73704.504505                       # average overall mshr miss latency
system.l3cache.overall_avg_mshr_miss_latency::.cpu.data 69548.942783                       # average overall mshr miss latency
system.l3cache.overall_avg_mshr_miss_latency::total 69579.350535                       # average overall mshr miss latency
system.l3cache.replacements                     43079                       # number of replacements
system.membus.snoop_filter.tot_requests        118672                       # Total number of requests made to the snoop filter.
system.membus.snoop_filter.hit_single_requests        42830                       # Number of requests hitting in the snoop filter with a single holder of the requested data.
system.membus.snoop_filter.hit_multi_requests            0                       # Number of requests hitting in the snoop filter with multiple (>1) holders of the requested data.
system.membus.snoop_filter.tot_snoops               0                       # Total number of snoops made to the snoop filter.
system.membus.snoop_filter.hit_single_snoops            0                       # Number of snoops hitting in the snoop filter with a single holder of the requested data.
system.membus.snoop_filter.hit_multi_snoops            0                       # Number of snoops hitting in the snoop filter with multiple (>1) holders of the requested data.
system.membus.pwrStateResidencyTicks::UNDEFINED  11193190000                       # Cumulative time (in ticks) in various power states
system.membus.trans_dist::ReadResp                716                       # Transaction distribution
system.membus.trans_dist::WritebackDirty        42649                       # Transaction distribution
system.membus.trans_dist::CleanEvict              176                       # Transaction distribution
system.membus.trans_dist::ReadExReq             75131                       # Transaction distribution
system.membus.trans_dist::ReadExResp            75131                       # Transaction distribution
system.membus.trans_dist::ReadSharedReq           716                       # Transaction distribution
system.membus.pkt_count_system.l3cache.mem_side::system.mem_ctrl.port       194519                       # Packet count per connected master and slave (bytes)
system.membus.pkt_count_system.l3cache.mem_side::total       194519                       # Packet count per connected master and slave (bytes)
system.membus.pkt_count::total                 194519                       # Packet count per connected master and slave (bytes)
system.membus.pkt_size_system.l3cache.mem_side::system.mem_ctrl.port      7583744                       # Cumulative packet size per connected master and slave (bytes)
system.membus.pkt_size_system.l3cache.mem_side::total      7583744                       # Cumulative packet size per connected master and slave (bytes)
system.membus.pkt_size::total                 7583744                       # Cumulative packet size per connected master and slave (bytes)
system.membus.snoops                                0                       # Total snoops (count)
system.membus.snoopTraffic                          0                       # Total snoop traffic (bytes)
system.membus.snoop_fanout::samples             75847                       # Request fanout histogram
system.membus.snoop_fanout::mean                    0                       # Request fanout histogram
system.membus.snoop_fanout::stdev                   0                       # Request fanout histogram
system.membus.snoop_fanout::underflows              0      0.00%      0.00% # Request fanout histogram
system.membus.snoop_fanout::0                   75847    100.00%    100.00% # Request fanout histogram
system.membus.snoop_fanout::1                       0      0.00%    100.00% # Request fanout histogram
system.membus.snoop_fanout::overflows               0      0.00%    100.00% # Request fanout histogram
system.membus.snoop_fanout::min_value               0                       # Request fanout histogram
system.membus.snoop_fanout::max_value               0                       # Request fanout histogram
system.membus.snoop_fanout::total               75847                       # Request fanout histogram
system.membus.reqLayer0.occupancy           144634000                       # Layer occupancy (ticks)
system.membus.reqLayer0.utilization               1.3                       # Layer utilization (%)
system.membus.respLayer0.occupancy          207393250                       # Layer occupancy (ticks)
system.membus.respLayer0.utilization              1.9                       # Layer utilization (%)

---------- End Simulation Statistics   ----------