
---------- Begin Simulation Statistics ----------
sim_seconds                                  0.012220                       # Number of seconds simulated
sim_ticks                                 12219738000                       # Number of ticks simulated
final_tick                                12219738000                       # Number of ticks from beginning of simulation (restored from checkpoints and never reset)
sim_freq                                 1000000000000                       # Frequency of simulated ticks
host_inst_rate                                 450335                       # Simulator instruction rate (inst/s)
host_op_rate                                   677850                       # Simulator op (including micro ops) rate (op/s)
host_tick_rate                              255204493                       # Simulator tick rate (ticks/s)
host_mem_usage                               10369472                       # Number of bytes of host memory used
host_seconds                                    47.88                       # Real time elapsed on the host
sim_insts                                    21563018                       # Number of instructions simulated
sim_ops                                      32456920                       # Number of ops (including micro ops) simulated
system.clk_domain.voltage_domain.voltage            1                       # Voltage in Volts
system.clk_domain.clock                           500                       # Clock period in ticks
system.mem_ctrl.pwrStateResidencyTicks::UNDEFINED  12219738000                       # Cumulative time (in ticks) in various power states
system.mem_ctrl.bytes_read::.cpu.inst           31040                       # Number of bytes read from this memory
system.mem_ctrl.bytes_read::.cpu.data           20032                       # Number of bytes read from this memory
system.mem_ctrl.bytes_read::total               51072                       # Number of bytes read from this memory
system.mem_ctrl.bytes_inst_read::.cpu.inst        31040                       # Number of instructions bytes read from this memory
system.mem_ctrl.bytes_inst_read::total          31040                       # Number of instructions bytes read from this memory
system.mem_ctrl.num_reads::.cpu.inst              485                       # Number of read requests responded to by this memory
system.mem_ctrl.num_reads::.cpu.data              313                       # Number of read requests responded to by this memory
system.mem_ctrl.num_reads::total                  798                       # Number of read requests responded to by this memory
system.mem_ctrl.bw_read::.cpu.inst            2540153                       # Total read bandwidth from this memory (bytes/s)
system.mem_ctrl.bw_read::.cpu.data            1639315                       # Total read bandwidth from this memory (bytes/s)
system.mem_ctrl.bw_read::total                4179468                       # Total read bandwidth from this memory (bytes/s)
system.mem_ctrl.bw_inst_read::.cpu.inst       2540153                       # Instruction read bandwidth from this memory (bytes/s)
system.mem_ctrl.bw_inst_read::total           2540153                       # Instruction read bandwidth from this memory (bytes/s)
system.mem_ctrl.bw_total::.cpu.inst           2540153                       # Total bandwidth to/from this memory (bytes/s)
system.mem_ctrl.bw_total::.cpu.data           1639315                       # Total bandwidth to/from this memory (bytes/s)
system.mem_ctrl.bw_total::total               4179468                       # Total bandwidth to/from this memory (bytes/s)
system.mem_ctrl.avgPriority_.cpu.inst::samples       485.00                       # Average QoS priority value for accepted requests
system.mem_ctrl.avgPriority_.cpu.data::samples       313.00                       # Average QoS priority value for accepted requests
system.mem_ctrl.priorityMinLatency       0.000000018750                       # per QoS priority minimum request to response latency (s)
system.mem_ctrl.priorityMaxLatency       0.000001099750                       # per QoS priority maximum request to response latency (s)
system.mem_ctrl.numReadWriteTurnArounds             0                       # Number of turnarounds from READ to WRITE
system.mem_ctrl.numWriteReadTurnArounds             0                       # Number of turnarounds from WRITE to READ
system.mem_ctrl.numStayReadState                 1599                       # Number of times bus staying in READ state
system.mem_ctrl.numStayWriteState                   0                       # Number of times bus staying in WRITE state
system.mem_ctrl.readReqs                          798                       # Number of read requests accepted
system.mem_ctrl.writeReqs                           0                       # Number of write requests accepted
system.mem_ctrl.readBursts                        798                       # Number of DRAM read bursts, including those serviced by the write queue
system.mem_ctrl.writeBursts                         0                       # Number of DRAM write bursts, including those merged in the write queue
system.mem_ctrl.bytesReadDRAM                   51072                       # Total number of bytes read from DRAM
system.mem_ctrl.bytesReadWrQ                        0                       # Total number of bytes read from write queue
system.mem_ctrl.bytesWritten                        0                       # Total number of bytes written to DRAM
system.mem_ctrl.bytesReadSys                    51072                       # Total read bytes from the system interface side
system.mem_ctrl.bytesWrittenSys                     0                       # Total written bytes from the system interface side
system.mem_ctrl.servicedByWrQ                       0                       # Number of DRAM read bursts serviced by the write queue
system.mem_ctrl.mergedWrBursts                      0                       # Number of DRAM write bursts merged with an existing one
system.mem_ctrl.neitherReadNorWriteReqs             0                       # Number of requests that are neither read nor write
system.mem_ctrl.perBankRdBursts::0                122                       # Per bank write bursts
system.mem_ctrl.perBankRdBursts::1                 63                       # Per bank write bursts
system.mem_ctrl.perBankRdBursts::2                 24                       # Per bank write bursts
system.mem_ctrl.perBankRdBursts::3                  7                       # Per bank write bursts
system.mem_ctrl.perBankRdBursts::4                  4                       # Per bank write bursts
system.mem_ctrl.perBankRdBursts::5                 17                       # Per bank write bursts
system.mem_ctrl.perBankRdBursts::6                 64                       # Per bank write bursts
system.mem_ctrl.perBankRdBursts::7                 54                       # Per bank write bursts
system.mem_ctrl.perBankRdBursts::8                  9                       # Per bank write bursts
system.mem_ctrl.perBankRdBursts::9                 19                       # Per bank write bursts
system.mem_ctrl.perBankRdBursts::10                37                       # Per bank write bursts
system.mem_ctrl.perBankRdBursts::11                44                       # Per bank write bursts
system.mem_ctrl.perBankRdBursts::12                38                       # Per bank write bursts
system.mem_ctrl.perBankRdBursts::13               103                       # Per bank write bursts
system.mem_ctrl.perBankRdBursts::14               104                       # Per bank write bursts
system.mem_ctrl.perBankRdBursts::15                89                       # Per bank write bursts
system.mem_ctrl.perBankWrBursts::0                  0                       # Per bank write bursts
system.mem_ctrl.perBankWrBursts::1                  0                       # Per bank write bursts
system.mem_ctrl.perBankWrBursts::2                  0                       # Per bank write bursts
system.mem_ctrl.perBankWrBursts::3                  0                       # Per bank write bursts
system.mem_ctrl.perBankWrBursts::4                  0                       # Per bank write bursts
system.mem_ctrl.perBankWrBursts::5                  0                       # Per bank write bursts
system.mem_ctrl.perBankWrBursts::6                  0                       # Per bank write bursts
system.mem_ctrl.perBankWrBursts::7                  0                       # Per bank write bursts
system.mem_ctrl.perBankWrBursts::8                  0                       # Per bank write bursts
system.mem_ctrl.perBankWrBursts::9                  0                       # Per bank write bursts
system.mem_ctrl.perBankWrBursts::10                 0                       # Per bank write bursts
system.mem_ctrl.perBankWrBursts::11                 0                       # Per bank write bursts
system.mem_ctrl.perBankWrBursts::12                 0                       # Per bank write bursts
system.mem_ctrl.perBankWrBursts::13                 0                       # Per bank write bursts
system.mem_ctrl.perBankWrBursts::14                 0                       # Per bank write bursts
system.mem_ctrl.perBankWrBursts::15                 0                       # Per bank write bursts
system.mem_ctrl.numRdRetry                          0                       # Number of times read queue was full causing retry
system.mem_ctrl.numWrRetry                          0                       # Number of times write queue was full causing retry
system.mem_ctrl.totGap                    12219654000                       # Total gap between requests
system.mem_ctrl.readPktSize::0                      0                       # Read request sizes (log2)
system.mem_ctrl.readPktSize::1                      0                       # Read request sizes (log2)
system.mem_ctrl.readPktSize::2                      0                       # Read request sizes (log2)
system.mem_ctrl.readPktSize::3                      0                       # Read request sizes (log2)
system.mem_ctrl.readPktSize::4                      0                       # Read request sizes (log2)
system.mem_ctrl.readPktSize::5                      0                       # Read request sizes (log2)
system.mem_ctrl.readPktSize::6                    798                       # Read request sizes (log2)
system.mem_ctrl.writePktSize::0                     0                       # Write request sizes (log2)
system.mem_ctrl.writePktSize::1                     0                       # Write request sizes (log2)
system.mem_ctrl.writePktSize::2                     0                       # Write request sizes (log2)
system.mem_ctrl.writePktSize::3                     0                       # Write request sizes (log2)
system.mem_ctrl.writePktSize::4                     0                       # Write request sizes (log2)
system.mem_ctrl.writePktSize::5                     0                       # Write request sizes (log2)
system.mem_ctrl.writePktSize::6                     0                       # Write request sizes (log2)
system.mem_ctrl.rdQLenPdf::0                      540                       # What read queue length does an incoming req see
system.mem_ctrl.rdQLenPdf::1                      202                       # What read queue length does an incoming req see
system.mem_ctrl.rdQLenPdf::2                       44                       # What read queue length does an incoming req see
system.mem_ctrl.rdQLenPdf::3                        7                       # What read queue length does an incoming req see
system.mem_ctrl.rdQLenPdf::4                        3                       # What read queue length does an incoming req see
system.mem_ctrl.rdQLenPdf::5                        2                       # What read queue length does an incoming req see
system.mem_ctrl.rdQLenPdf::6                        0                       # What read queue length does an incoming req see
system.mem_ctrl.rdQLenPdf::7                        0                       # What read queue length does an incoming req see
system.mem_ctrl.rdQLenPdf::8                        0                       # What read queue length does an incoming req see
system.mem_ctrl.rdQLenPdf::9                        0                       # What read queue length does an incoming req see
system.mem_ctrl.rdQLenPdf::10                       0                       # What read queue length does an incoming req see
system.mem_ctrl.rdQLenPdf::11                       0                       # What read queue length does an incoming req see
system.mem_ctrl.rdQLenPdf::12                       0                       # What read queue length does an incoming req see
system.mem_ctrl.rdQLenPdf::13                       0                       # What read queue length does an incoming req see
system.mem_ctrl.rdQLenPdf::14                       0                       # What read queue length does an incoming req see
system.mem_ctrl.rdQLenPdf::15                       0                       # What read queue length does an incoming req see
system.mem_ctrl.rdQLenPdf::16                       0                       # What read queue length does an incoming req see
system.mem_ctrl.rdQLenPdf::17                       0                       # What read queue length does an incoming req see
system.mem_ctrl.rdQLenPdf::18                       0                       # What read queue length does an incoming req see
system.mem_ctrl.rdQLenPdf::19                       0                       # What read queue length does an incoming req see
system.mem_ctrl.rdQLenPdf::20                       0                       # What read queue length does an incoming req see
system.mem_ctrl.rdQLenPdf::21                       0                       # What read queue length does an incoming req see
system.mem_ctrl.rdQLenPdf::22                       0                       # What read queue length does an incoming req see
system.mem_ctrl.rdQLenPdf::23                       0                       # What read queue length does an incoming req see
system.mem_ctrl.rdQLenPdf::24                       0                       # What read queue length does an incoming req see
system.mem_ctrl.rdQLenPdf::25                       0                       # What read queue length does an incoming req see
system.mem_ctrl.rdQLenPdf::26                       0                       # What read queue length does an incoming req see
system.mem_ctrl.rdQLenPdf::27                       0                       # What read queue length does an incoming req see
system.mem_ctrl.rdQLenPdf::28                       0                       # What read queue length does an incoming req see
system.mem_ctrl.rdQLenPdf::29                       0                       # What read queue length does an incoming req see
system.mem_ctrl.rdQLenPdf::30                       0                       # What read queue length does an incoming req see
system.mem_ctrl.rdQLenPdf::31                       0                       # What read queue length does an incoming req see
system.mem_ctrl.wrQLenPdf::0                        0                       # What write queue length does an incoming req see
system.mem_ctrl.wrQLenPdf::1                        0                       # What write queue length does an incoming req see
system.mem_ctrl.wrQLenPdf::2                        0                       # What write queue length does an incoming req see
system.mem_ctrl.wrQLenPdf::3                        0                       # What write queue length does an incoming req see
system.mem_ctrl.wrQLenPdf::4                        0                       # What write queue length does an incoming req see
system.mem_ctrl.wrQLenPdf::5                        0                       # What write queue length does an incoming req see
system.mem_ctrl.wrQLenPdf::6                        0                       # What write queue length does an incoming req see
system.mem_ctrl.wrQLenPdf::7                        0                       # What write queue length does an incoming req see
system.mem_ctrl.wrQLenPdf::8                        0                       # What write queue length does an incoming req see
system.mem_ctrl.wrQLenPdf::9                        0                       # What write queue length does an incoming req see
system.mem_ctrl.wrQLenPdf::10                       0                       # What write queue length does an incoming req see
system.mem_ctrl.wrQLenPdf::11                       0                       # What write queue length does an incoming req see
system.mem_ctrl.wrQLenPdf::12                       0                       # What write queue length does an incoming req see
system.mem_ctrl.wrQLenPdf::13                       0                       # What write queue length does an incoming req see
system.mem_ctrl.wrQLenPdf::14                       0                       # What write queue length does an incoming req see
system.mem_ctrl.wrQLenPdf::15                       0                       # What write queue length does an incoming req see
system.mem_ctrl.wrQLenPdf::16                       0                       # What write queue length does an incoming req see
system.mem_ctrl.wrQLenPdf::17                       0                       # What write queue length does an incoming req see
system.mem_ctrl.wrQLenPdf::18                       0                       # What write queue length does an incoming req see
system.mem_ctrl.wrQLenPdf::19                       0                       # What write queue length does an incoming req see
system.mem_ctrl.wrQLenPdf::20                       0                       # What write queue length does an incoming req see
system.mem_ctrl.wrQLenPdf::21                       0                       # What write queue length does an incoming req see
system.mem_ctrl.wrQLenPdf::22                       0                       # What write queue length does an incoming req see
system.mem_ctrl.wrQLenPdf::23                       0                       # What write queue length does an incoming req see
system.mem_ctrl.wrQLenPdf::24                       0                       # What write queue length does an incoming req see
system.mem_ctrl.wrQLenPdf::25                       0                       # What write queue length does an incoming req see
system.mem_ctrl.wrQLenPdf::26                       0                       # What write queue length does an incoming req see
system.mem_ctrl.wrQLenPdf::27                       0                       # What write queue length does an incoming req see
system.mem_ctrl.wrQLenPdf::28                       0                       # What write queue length does an incoming req see
system.mem_ctrl.wrQLenPdf::29                       0                       # What write queue length does an incoming req see
system.mem_ctrl.wrQLenPdf::30                       0                       # What write queue length does an incoming req see
system.mem_ctrl.wrQLenPdf::31                       0                       # What write queue length does an incoming req see
system.mem_ctrl.wrQLenPdf::32                       0                       # What write queue length does an incoming req see
system.mem_ctrl.wrQLenPdf::33                       0                       # What write queue length does an incoming req see
system.mem_ctrl.wrQLenPdf::34                       0                       # What write queue length does an incoming req see
system.mem_ctrl.wrQLenPdf::35                       0                       # What write queue length does an incoming req see
system.mem_ctrl.wrQLenPdf::36                       0                       # What write queue length does an incoming req see
system.mem_ctrl.wrQLenPdf::37                       0                       # What write queue length does an incoming req see
system.mem_ctrl.wrQLenPdf::38                       0                       # What write queue length does an incoming req see
system.mem_ctrl.wrQLenPdf::39                       0                       # What write queue length does an incoming req see
system.mem_ctrl.wrQLenPdf::40                       0                       # What write queue length does an incoming req see
system.mem_ctrl.wrQLenPdf::41                       0                       # What write queue length does an incoming req see
system.mem_ctrl.wrQLenPdf::42                       0                       # What write queue length does an incoming req see
system.mem_ctrl.wrQLenPdf::43                       0                       # What write queue length does an incoming req see
system.mem_ctrl.wrQLenPdf::44                       0                       # What write queue length does an incoming req see
system.mem_ctrl.wrQLenPdf::45                       0                       # What write queue length does an incoming req see
system.mem_ctrl.wrQLenPdf::46                       0                       # What write queue length does an incoming req see
system.mem_ctrl.wrQLenPdf::47                       0                       # What write queue length does an incoming req see
system.mem_ctrl.wrQLenPdf::48                       0                       # What write queue length does an incoming req see
system.mem_ctrl.wrQLenPdf::49                       0                       # What write queue length does an incoming req see
system.mem_ctrl.wrQLenPdf::50                       0                       # What write queue length does an incoming req see
system.mem_ctrl.wrQLenPdf::51                       0                       # What write queue length does an incoming req see
system.mem_ctrl.wrQLenPdf::52                       0                       # What write queue length does an incoming req see
system.mem_ctrl.wrQLenPdf::53                       0                       # What write queue length does an incoming req see
system.mem_ctrl.wrQLenPdf::54                       0                       # What write queue length does an incoming req see
system.mem_ctrl.wrQLenPdf::55                       0                       # What write queue length does an incoming req see
system.mem_ctrl.wrQLenPdf::56                       0                       # What write queue length does an incoming req see
system.mem_ctrl.wrQLenPdf::57                       0                       # What write queue length does an incoming req see
system.mem_ctrl.wrQLenPdf::58                       0                       # What write queue length does an incoming req see
system.mem_ctrl.wrQLenPdf::59                       0                       # What write queue length does an incoming req see
system.mem_ctrl.wrQLenPdf::60                       0                       # What write queue length does an incoming req see
system.mem_ctrl.wrQLenPdf::61                       0                       # What write queue length does an incoming req see
system.mem_ctrl.wrQLenPdf::62                       0                       # What write queue length does an incoming req see
system.mem_ctrl.wrQLenPdf::63                       0                       # What write queue length does an incoming req see
system.mem_ctrl.bytesPerActivate::samples          155                       # Bytes accessed per row activation
system.mem_ctrl.bytesPerActivate::mean     315.458065                       # Bytes accessed per row activation
system.mem_ctrl.bytesPerActivate::gmean    205.884855                       # Bytes accessed per row activation
system.mem_ctrl.bytesPerActivate::stdev    292.295555                       # Bytes accessed per row activation
system.mem_ctrl.bytesPerActivate::0-127            43     27.74%     27.74% # Bytes accessed per row activation
system.mem_ctrl.bytesPerActivate::128-255           42     27.10%     54.84% # Bytes accessed per row activation
system.mem_ctrl.bytesPerActivate::256-383           22     14.19%     69.03% # Bytes accessed per row activation
system.mem_ctrl.bytesPerActivate::384-511           13      8.39%     77.42% # Bytes accessed per row activation
system.mem_ctrl.bytesPerActivate::512-639            4      2.58%     80.00% # Bytes accessed per row activation
system.mem_ctrl.bytesPerActivate::640-767           15      9.68%     89.68% # Bytes accessed per row activation
system.mem_ctrl.bytesPerActivate::768-895            2      1.29%     90.97% # Bytes accessed per row activation
system.mem_ctrl.bytesPerActivate::896-1023            3      1.94%     92.90% # Bytes accessed per row activation
system.mem_ctrl.bytesPerActivate::1024-1151           11      7.10%    100.00% # Bytes accessed per row activation
system.mem_ctrl.bytesPerActivate::total           155                       # Bytes accessed per row activation
system.mem_ctrl.masterReadBytes::.cpu.inst        31040                       # Per-master bytes read from memory
system.mem_ctrl.masterReadBytes::.cpu.data        20032                       # Per-master bytes read from memory
system.mem_ctrl.masterReadRate::.cpu.inst 2540152.661210902967                       # Per-master bytes read from memory rate (Bytes/sec)
system.mem_ctrl.masterReadRate::.cpu.data 1639315.016410335433                       # Per-master bytes read from memory rate (Bytes/sec)
system.mem_ctrl.masterReadAccesses::.cpu.inst          485                       # Per-master read serviced memory accesses
system.mem_ctrl.masterReadAccesses::.cpu.data          313                       # Per-master read serviced memory accesses
system.mem_ctrl.masterReadTotalLat::.cpu.inst     15716250                       # Per-master read total memory access latency
system.mem_ctrl.masterReadTotalLat::.cpu.data     13875250                       # Per-master read total memory access latency
system.mem_ctrl.masterReadAvgLat::.cpu.inst     32404.64                       # Per-master read average memory access latency
system.mem_ctrl.masterReadAvgLat::.cpu.data     44329.87                       # Per-master read average memory access latency
system.mem_ctrl.totQLat                      14629000                       # Total ticks spent queuing
system.mem_ctrl.totMemAccLat                 29591500                       # Total ticks spent from burst creation until serviced by the DRAM
system.mem_ctrl.totBusLat                     3990000                       # Total ticks spent in databus transfers
system.mem_ctrl.avgQLat                      18332.08                       # Average queueing delay per DRAM burst
system.mem_ctrl.avgBusLat                     5000.00                       # Average bus latency per DRAM burst
system.mem_ctrl.avgMemAccLat                 37082.08                       # Average memory access latency per DRAM burst
system.mem_ctrl.avgRdBW                          4.18                       # Average DRAM read bandwidth in MiByte/s
system.mem_ctrl.avgWrBW                          0.00                       # Average achieved write bandwidth in MiByte/s
system.mem_ctrl.avgRdBWSys                       4.18                       # Average system read bandwidth in MiByte/s
system.mem_ctrl.avgWrBWSys                       0.00                       # Average system write bandwidth in MiByte/s
system.mem_ctrl.peakBW                       12800.00                       # Theoretical peak bandwidth in MiByte/s
system.mem_ctrl.busUtil                          0.03                       # Data bus utilization in percentage
system.mem_ctrl.busUtilRead                      0.03                       # Data bus utilization in percentage for reads
system.mem_ctrl.busUtilWrite                     0.00                       # Data bus utilization in percentage for writes
system.mem_ctrl.avgRdQLen                        1.00                       # Average read queue length when enqueuing
system.mem_ctrl.avgWrQLen                        0.00                       # Average write queue length when enqueuing
system.mem_ctrl.readRowHits                       633                       # Number of row buffer hits during reads
system.mem_ctrl.writeRowHits                        0                       # Number of row buffer hits during writes
system.mem_ctrl.readRowHitRate                  79.32                       # Row buffer hit rate for reads
system.mem_ctrl.writeRowHitRate                   nan                       # Row buffer hit rate for writes
system.mem_ctrl.avgGap                    15312849.62                       # Average gap between requests
system.mem_ctrl.pageHitRate                     79.32                       # Row buffer hit rate, read and write combined
system.mem_ctrl_0.actEnergy                    478380                       # Energy for activate commands per rank (pJ)
system.mem_ctrl_0.preEnergy                    231495                       # Energy for precharge commands per rank (pJ)
system.mem_ctrl_0.readEnergy                  2534700                       # Energy for read commands per rank (pJ)
system.mem_ctrl_0.writeEnergy                       0                       # Energy for write commands per rank (pJ)
system.mem_ctrl_0.refreshEnergy          6146400.000000                       # Energy for refresh commands per rank (pJ)
system.mem_ctrl_0.actBackEnergy               5381940                       # Energy for active background per rank (pJ)
system.mem_ctrl_0.preBackEnergy                229440                       # Energy for precharge background per rank (pJ)
system.mem_ctrl_0.actPowerDownEnergy         28936050                       # Energy for active power-down per rank (pJ)
system.mem_ctrl_0.prePowerDownEnergy          3861600                       # Energy for precharge power-down per rank (pJ)
system.mem_ctrl_0.selfRefreshEnergy        2912670540                       # Energy for self refresh per rank (pJ)
system.mem_ctrl_0.totalEnergy              2960470545                       # Total energy per rank (pJ)
system.mem_ctrl_0.averagePower             242.269560                       # Core power per rank (mW)
system.mem_ctrl_0.totalIdleTime           12207285250                       # Total Idle time Per DRAM Rank
system.mem_ctrl_0.memoryStateTime::IDLE        336500                       # Time in different power states
system.mem_ctrl_0.memoryStateTime::REF        2600000                       # Time in different power states
system.mem_ctrl_0.memoryStateTime::SREF   12133825500                       # Time in different power states
system.mem_ctrl_0.memoryStateTime::PRE_PDN     10055500                       # Time in different power states
system.mem_ctrl_0.memoryStateTime::ACT        9475500                       # Time in different power states
system.mem_ctrl_0.memoryStateTime::ACT_PDN     63445000                       # Time in different power states
system.mem_ctrl_1.actEnergy                    699720                       # Energy for activate commands per rank (pJ)
system.mem_ctrl_1.preEnergy                    356730                       # Energy for precharge commands per rank (pJ)
system.mem_ctrl_1.readEnergy                  3163020                       # Energy for read commands per rank (pJ)
system.mem_ctrl_1.writeEnergy                       0                       # Energy for write commands per rank (pJ)
system.mem_ctrl_1.refreshEnergy          8604960.000000                       # Energy for refresh commands per rank (pJ)
system.mem_ctrl_1.actBackEnergy               6620550                       # Energy for active background per rank (pJ)
system.mem_ctrl_1.preBackEnergy                416160                       # Energy for precharge background per rank (pJ)
system.mem_ctrl_1.actPowerDownEnergy         33439050                       # Energy for active power-down per rank (pJ)
system.mem_ctrl_1.prePowerDownEnergy          8437440                       # Energy for precharge power-down per rank (pJ)
system.mem_ctrl_1.selfRefreshEnergy        2907224280                       # Energy for self refresh per rank (pJ)
system.mem_ctrl_1.totalEnergy              2968961910                       # Total energy per rank (pJ)
system.mem_ctrl_1.averagePower             242.964449                       # Core power per rank (mW)
system.mem_ctrl_1.totalIdleTime           12203971000                       # Total Idle time Per DRAM Rank
system.mem_ctrl_1.memoryStateTime::IDLE        724500                       # Time in different power states
system.mem_ctrl_1.memoryStateTime::REF        3640000                       # Time in different power states
system.mem_ctrl_1.memoryStateTime::SREF   12108831250                       # Time in different power states
system.mem_ctrl_1.memoryStateTime::PRE_PDN     21971750                       # Time in different power states
system.mem_ctrl_1.memoryStateTime::ACT       11238000                       # Time in different power states
system.mem_ctrl_1.memoryStateTime::ACT_PDN     73332500                       # Time in different power states
system.pwrStateResidencyTicks::UNDEFINED  12219738000                       # Cumulative time (in ticks) in various power states
system.cpu.branchPred.lookups                 2450803                       # Number of BP lookups
system.cpu.branchPred.condPredicted           2450803                       # Number of conditional branches predicted
system.cpu.branchPred.condIncorrect            120781                       # Number of conditional branches incorrect
system.cpu.branchPred.BTBLookups              1864126                       # Number of BTB lookups
system.cpu.branchPred.BTBHits                       0                       # Number of BTB hits
system.cpu.branchPred.BTBCorrect                    0                       # Number of correct BTB predictions (this stat may not work properly.
system.cpu.branchPred.BTBHitPct              0.000000                       # BTB Hit Percentage
system.cpu.branchPred.usedRAS                    4631                       # Number of times the RAS was used to get a target.
system.cpu.branchPred.RASInCorrect                143                       # Number of incorrect RAS predictions.
system.cpu.branchPred.indirectLookups         1864126                       # Number of indirect predictor lookups.
system.cpu.branchPred.indirectHits            1853325                       # Number of indirect target hits.
system.cpu.branchPred.indirectMisses            10801                       # Number of indirect misses.
system.cpu.branchPredindirectMispredicted          890                       # Number of mispredicted indirect branches.
system.cpu.dtb.walker.pwrStateResidencyTicks::UNDEFINED  12219738000                       # Cumulative time (in ticks) in various power states
system.cpu.dtb.rdAccesses                    10996776                       # TLB accesses on read requests
system.cpu.dtb.wrAccesses                     2569990                       # TLB accesses on write requests
system.cpu.dtb.rdMisses                            77                       # TLB misses on read requests
system.cpu.dtb.wrMisses                            40                       # TLB misses on write requests
system.cpu.apic_clk_domain.clock                 8000                       # Clock period in ticks
system.cpu.interrupts.pwrStateResidencyTicks::UNDEFINED  12219738000                       # Cumulative time (in ticks) in various power states
system.cpu.itb.walker.pwrStateResidencyTicks::UNDEFINED  12219738000                       # Cumulative time (in ticks) in various power states
system.cpu.itb.rdAccesses                           0                       # TLB accesses on read requests
system.cpu.itb.wrAccesses                     5684003                       # TLB accesses on write requests
system.cpu.itb.rdMisses                             0                       # TLB misses on read requests
system.cpu.itb.wrMisses                           150                       # TLB misses on write requests
system.cpu.workload.numSyscalls                    12                       # Number of system calls
system.cpu.pwrStateResidencyTicks::ON     12219738000                       # Cumulative time (in ticks) in various power states
system.cpu.numCycles                         24439477                       # number of cpu cycles simulated
system.cpu.numWorkItemsStarted                      0                       # number of work items this cpu started
system.cpu.numWorkItemsCompleted                    0                       # number of work items this cpu completed
system.cpu.fetch.icacheStallCycles             133791                       # Number of cycles fetch is stalled on an Icache miss
system.cpu.fetch.Insts                       27120681                       # Number of instructions fetch has processed
system.cpu.fetch.Branches                     2450803                       # Number of branches that fetch encountered
system.cpu.fetch.predictedBranches            1857956                       # Number of branches that fetch has predicted taken
system.cpu.fetch.Cycles                      24158646                       # Number of cycles fetch has run and was not squashing or blocked
system.cpu.fetch.SquashCycles                  242046                       # Number of cycles fetch has spent squashing
system.cpu.fetch.MiscStallCycles                   77                       # Number of cycles fetch has spent waiting on interrupts, or bad addresses, or out of MSHRs
system.cpu.fetch.PendingTrapStallCycles          1067                       # Number of stall cycles due to pending traps
system.cpu.fetch.PendingQuiesceStallCycles           13                       # Number of stall cycles due to pending quiesce instructions
system.cpu.fetch.CacheLines                   5683898                       # Number of cache lines fetched
system.cpu.fetch.IcacheSquashes                   297                       # Number of outstanding Icache misses that were squashed
system.cpu.fetch.rateDist::samples           24414617                       # Number of instructions fetched each cycle (Total)
system.cpu.fetch.rateDist::mean              1.670841                       # Number of instructions fetched each cycle (Total)
system.cpu.fetch.rateDist::stdev             0.699166                       # Number of instructions fetched each cycle (Total)
system.cpu.fetch.rateDist::underflows               0      0.00%      0.00% # Number of instructions fetched each cycle (Total)
system.cpu.fetch.rateDist::0                  3271792     13.40%     13.40% # Number of instructions fetched each cycle (Total)
system.cpu.fetch.rateDist::1                  1492712      6.11%     19.51% # Number of instructions fetched each cycle (Total)
system.cpu.fetch.rateDist::2                 19650113     80.49%    100.00% # Number of instructions fetched each cycle (Total)
system.cpu.fetch.rateDist::overflows                0      0.00%    100.00% # Number of instructions fetched each cycle (Total)
system.cpu.fetch.rateDist::min_value                0                       # Number of instructions fetched each cycle (Total)
system.cpu.fetch.rateDist::max_value                2                       # Number of instructions fetched each cycle (Total)
system.cpu.fetch.rateDist::total             24414617                       # Number of instructions fetched each cycle (Total)
system.cpu.fetch.branchRate                  0.100281                       # Number of branch fetches per cycle
system.cpu.fetch.rate                        1.109708                       # Number of inst fetches per cycle
system.cpu.decode.IdleCycles                  2302427                       # Number of cycles decode is idle
system.cpu.decode.BlockedCycles               2463639                       # Number of cycles decode is blocked
system.cpu.decode.RunCycles                  17362178                       # Number of cycles decode is running
system.cpu.decode.UnblockCycles               2165350                       # Number of cycles decode is unblocking
system.cpu.decode.SquashCycles                 121023                       # Number of cycles decode is squashing
system.cpu.decode.DecodedInsts               38381266                       # Number of instructions handled by decode
system.cpu.decode.SquashedInsts                372369                       # Number of squashed instructions handled by decode
system.cpu.rename.SquashCycles                 121023                       # Number of cycles rename is squashing
system.cpu.rename.IdleCycles                  3697091                       # Number of cycles rename is idle
system.cpu.rename.BlockCycles                  728904                       # Number of cycles rename is blocking
system.cpu.rename.serializeStallCycles           1597                       # count of cycles rename stalled for serializing inst
system.cpu.rename.RunCycles                  17974203                       # Number of cycles rename is running
system.cpu.rename.UnblockCycles               1891799                       # Number of cycles rename is unblocking
system.cpu.rename.RenamedInsts               37928451                       # Number of instructions processed by rename
system.cpu.rename.SquashedInsts                209888                       # Number of squashed instructions processed by rename
system.cpu.rename.ROBFullEvents                    23                       # Number of times rename has blocked due to ROB full
system.cpu.rename.IQFullEvents                 873390                       # Number of times rename has blocked due to IQ full
system.cpu.rename.SQFullEvents                  17685                       # Number of times rename has blocked due to SQ full
system.cpu.rename.FullRegisterEvents               12                       # Number of times there has been no free registers
system.cpu.rename.RenamedOperands            46514042                       # Number of destination operands rename has renamed
system.cpu.rename.RenameLookups              86736800                       # Number of register rename lookups that rename has made
system.cpu.rename.int_rename_lookups         55752915                       # Number of integer rename lookups
system.cpu.rename.fp_rename_lookups              3878                       # Number of floating rename lookups
system.cpu.rename.CommittedMaps              39841096                       # Number of HB maps that are committed
system.cpu.rename.UndoneMaps                  6672946                       # Number of HB maps that are undone due to squashing
system.cpu.rename.serializingInsts                 25                       # count of serializing insts renamed
system.cpu.rename.tempSerializingInsts             22                       # count of temporary serializing insts renamed
system.cpu.rename.skidInsts                   2893451                       # count of insts added to the skid buffer
system.cpu.memDep0.insertedLoads             11928363                       # Number of loads inserted to the mem dependence unit.
system.cpu.memDep0.insertedStores             2846373                       # Number of stores inserted to the mem dependence unit.
system.cpu.memDep0.conflictingLoads           7939997                       # Number of conflicting loads.
system.cpu.memDep0.conflictingStores           984054                       # Number of conflicting stores.
system.cpu.iq.iqInstsAdded                   37523159                       # Number of instructions added to the IQ (excludes non-spec)
system.cpu.iq.iqNonSpecInstsAdded                 111                       # Number of non-speculative instructions added to the IQ
system.cpu.iq.iqInstsIssued                  35177205                       # Number of instructions issued
system.cpu.iq.iqSquashedInstsIssued             72454                       # Number of squashed instructions issued
system.cpu.iq.iqSquashedInstsExamined         5066349                       # Number of squashed instructions iterated over during squash; mainly for profiling
system.cpu.iq.iqSquashedOperandsExamined      7714419                       # Number of squashed operands that are examined and possibly removed from graph
system.cpu.iq.iqSquashedNonSpecRemoved             99                       # Number of squashed non-spec instructions that were removed
system.cpu.iq.issued_per_cycle::samples      24414617                       # Number of insts issued each cycle
system.cpu.iq.issued_per_cycle::mean         1.440826                       # Number of insts issued each cycle
system.cpu.iq.issued_per_cycle::stdev        0.696956                       # Number of insts issued each cycle
system.cpu.iq.issued_per_cycle::underflows            0      0.00%      0.00% # Number of insts issued each cycle
system.cpu.iq.issued_per_cycle::0             2920582     11.96%     11.96% # Number of insts issued each cycle
system.cpu.iq.issued_per_cycle::1             7810865     31.99%     43.96% # Number of insts issued each cycle
system.cpu.iq.issued_per_cycle::2            13683170     56.04%    100.00% # Number of insts issued each cycle
system.cpu.iq.issued_per_cycle::overflows            0      0.00%    100.00% # Number of insts issued each cycle
system.cpu.iq.issued_per_cycle::min_value            0                       # Number of insts issued each cycle
system.cpu.iq.issued_per_cycle::max_value            2                       # Number of insts issued each cycle
system.cpu.iq.issued_per_cycle::total        24414617                       # Number of insts issued each cycle
system.cpu.iq.fu_full::No_OpClass                   0      0.00%      0.00% # attempts to use FU when none available
system.cpu.iq.fu_full::IntAlu                       0      0.00%      0.00% # attempts to use FU when none available
system.cpu.iq.fu_full::IntMult                      0      0.00%      0.00% # attempts to use FU when none available
system.cpu.iq.fu_full::IntDiv                       0      0.00%      0.00% # attempts to use FU when none available
system.cpu.iq.fu_full::FloatAdd                     0      0.00%      0.00% # attempts to use FU when none available
system.cpu.iq.fu_full::FloatCmp                     0      0.00%      0.00% # attempts to use FU when none available
system.cpu.iq.fu_full::FloatCvt                     0      0.00%      0.00% # attempts to use FU when none available
system.cpu.iq.fu_full::FloatMult                    0      0.00%      0.00% # attempts to use FU when none available
system.cpu.iq.fu_full::FloatMultAcc                 0      0.00%      0.00% # attempts to use FU when none available
system.cpu.iq.fu_full::FloatDiv                     0      0.00%      0.00% # attempts to use FU when none available
system.cpu.iq.fu_full::FloatMisc                    0      0.00%      0.00% # attempts to use FU when none available
system.cpu.iq.fu_full::FloatSqrt                    0      0.00%      0.00% # attempts to use FU when none available
system.cpu.iq.fu_full::SimdAdd                    245      0.00%      0.00% # attempts to use FU when none available
system.cpu.iq.fu_full::SimdAddAcc                   0      0.00%      0.00% # attempts to use FU when none available
system.cpu.iq.fu_full::SimdAlu                     62      0.00%      0.01% # attempts to use FU when none available
system.cpu.iq.fu_full::SimdCmp                      0      0.00%      0.01% # attempts to use FU when none available
system.cpu.iq.fu_full::SimdCvt                     13      0.00%      0.01% # attempts to use FU when none available
system.cpu.iq.fu_full::SimdMisc                   115      0.00%      0.01% # attempts to use FU when none available
system.cpu.iq.fu_full::SimdMult                     0      0.00%      0.01% # attempts to use FU when none available
system.cpu.iq.fu_full::SimdMultAcc                  0      0.00%      0.01% # attempts to use FU when none available
system.cpu.iq.fu_full::SimdShift                  122      0.00%      0.01% # attempts to use FU when none available
system.cpu.iq.fu_full::SimdShiftAcc                 0      0.00%      0.01% # attempts to use FU when none available
system.cpu.iq.fu_full::SimdSqrt                     0      0.00%      0.01% # attempts to use FU when none available
system.cpu.iq.fu_full::SimdFloatAdd                 0      0.00%      0.01% # attempts to use FU when none available
system.cpu.iq.fu_full::SimdFloatAlu                 0      0.00%      0.01% # attempts to use FU when none available
system.cpu.iq.fu_full::SimdFloatCmp                 0      0.00%      0.01% # attempts to use FU when none available
system.cpu.iq.fu_full::SimdFloatCvt                 0      0.00%      0.01% # attempts to use FU when none available
system.cpu.iq.fu_full::SimdFloatDiv                 0      0.00%      0.01% # attempts to use FU when none available
system.cpu.iq.fu_full::SimdFloatMisc                0      0.00%      0.01% # attempts to use FU when none available
system.cpu.iq.fu_full::SimdFloatMult                0      0.00%      0.01% # attempts to use FU when none available
system.cpu.iq.fu_full::SimdFloatMultAcc             0      0.00%      0.01% # attempts to use FU when none available
system.cpu.iq.fu_full::SimdFloatSqrt                0      0.00%      0.01% # attempts to use FU when none available
system.cpu.iq.fu_full::SimdAes                      0      0.00%      0.01% # attempts to use FU when none available
system.cpu.iq.fu_full::SimdAesMix                   0      0.00%      0.01% # attempts to use FU when none available
system.cpu.iq.fu_full::SimdSha1Hash                 0      0.00%      0.01% # attempts to use FU when none available
system.cpu.iq.fu_full::SimdSha1Hash2                0      0.00%      0.01% # attempts to use FU when none available
system.cpu.iq.fu_full::SimdSha256Hash               0      0.00%      0.01% # attempts to use FU when none available
system.cpu.iq.fu_full::SimdSha256Hash2              0      0.00%      0.01% # attempts to use FU when none available
system.cpu.iq.fu_full::SimdShaSigma2                0      0.00%      0.01% # attempts to use FU when none available
system.cpu.iq.fu_full::SimdShaSigma3                0      0.00%      0.01% # attempts to use FU when none available
system.cpu.iq.fu_full::MemRead                5634726     93.96%     93.97% # attempts to use FU when none available
system.cpu.iq.fu_full::MemWrite                361736      6.03%    100.00% # attempts to use FU when none available
system.cpu.iq.fu_full::FloatMemRead                 0      0.00%    100.00% # attempts to use FU when none available
system.cpu.iq.fu_full::FloatMemWrite                0      0.00%    100.00% # attempts to use FU when none available
system.cpu.iq.fu_full::IprAccess                    0      0.00%    100.00% # attempts to use FU when none available
system.cpu.iq.fu_full::InstPrefetch                 0      0.00%    100.00% # attempts to use FU when none available
system.cpu.iq.FU_type_0::No_OpClass               330      0.00%      0.00% # Type of FU issued
system.cpu.iq.FU_type_0::IntAlu              21492577     61.10%     61.10% # Type of FU issued
system.cpu.iq.FU_type_0::IntMult                 2925      0.01%     61.11% # Type of FU issued
system.cpu.iq.FU_type_0::IntDiv                    23      0.00%     61.11% # Type of FU issued
system.cpu.iq.FU_type_0::FloatAdd                  10      0.00%     61.11% # Type of FU issued
system.cpu.iq.FU_type_0::FloatCmp                   0      0.00%     61.11% # Type of FU issued
system.cpu.iq.FU_type_0::FloatCvt                   0      0.00%     61.11% # Type of FU issued
system.cpu.iq.FU_type_0::FloatMult                  0      0.00%     61.11% # Type of FU issued
system.cpu.iq.FU_type_0::FloatMultAcc               0      0.00%     61.11% # Type of FU issued
system.cpu.iq.FU_type_0::FloatDiv                   0      0.00%     61.11% # Type of FU issued
system.cpu.iq.FU_type_0::FloatMisc                  0      0.00%     61.11% # Type of FU issued
system.cpu.iq.FU_type_0::FloatSqrt                  0      0.00%     61.11% # Type of FU issued
system.cpu.iq.FU_type_0::SimdAdd                  375      0.00%     61.11% # Type of FU issued
system.cpu.iq.FU_type_0::SimdAddAcc                 0      0.00%     61.11% # Type of FU issued
system.cpu.iq.FU_type_0::SimdAlu                   78      0.00%     61.11% # Type of FU issued
system.cpu.iq.FU_type_0::SimdCmp                    0      0.00%     61.11% # Type of FU issued
system.cpu.iq.FU_type_0::SimdCvt                  116      0.00%     61.11% # Type of FU issued
system.cpu.iq.FU_type_0::SimdMisc                 223      0.00%     61.11% # Type of FU issued
system.cpu.iq.FU_type_0::SimdMult                   0      0.00%     61.11% # Type of FU issued
system.cpu.iq.FU_type_0::SimdMultAcc                0      0.00%     61.11% # Type of FU issued
system.cpu.iq.FU_type_0::SimdShift                186      0.00%     61.11% # Type of FU issued
system.cpu.iq.FU_type_0::SimdShiftAcc               0      0.00%     61.11% # Type of FU issued
system.cpu.iq.FU_type_0::SimdSqrt                   0      0.00%     61.11% # Type of FU issued
system.cpu.iq.FU_type_0::SimdFloatAdd               0      0.00%     61.11% # Type of FU issued
system.cpu.iq.FU_type_0::SimdFloatAlu               0      0.00%     61.11% # Type of FU issued
system.cpu.iq.FU_type_0::SimdFloatCmp               0      0.00%     61.11% # Type of FU issued
system.cpu.iq.FU_type_0::SimdFloatCvt               0      0.00%     61.11% # Type of FU issued
system.cpu.iq.FU_type_0::SimdFloatDiv               0      0.00%     61.11% # Type of FU issued
system.cpu.iq.FU_type_0::SimdFloatMisc              0      0.00%     61.11% # Type of FU issued
system.cpu.iq.FU_type_0::SimdFloatMult              0      0.00%     61.11% # Type of FU issued
system.cpu.iq.FU_type_0::SimdFloatMultAcc            0      0.00%     61.11% # Type of FU issued
system.cpu.iq.FU_type_0::SimdFloatSqrt              0      0.00%     61.11% # Type of FU issued
system.cpu.iq.FU_type_0::SimdAes                    0      0.00%     61.11% # Type of FU issued
system.cpu.iq.FU_type_0::SimdAesMix                 0      0.00%     61.11% # Type of FU issued
system.cpu.iq.FU_type_0::SimdSha1Hash               0      0.00%     61.11% # Type of FU issued
system.cpu.iq.FU_type_0::SimdSha1Hash2              0      0.00%     61.11% # Type of FU issued
system.cpu.iq.FU_type_0::SimdSha256Hash             0      0.00%     61.11% # Type of FU issued
system.cpu.iq.FU_type_0::SimdSha256Hash2            0      0.00%     61.11% # Type of FU issued
system.cpu.iq.FU_type_0::SimdShaSigma2              0      0.00%     61.11% # Type of FU issued
system.cpu.iq.FU_type_0::SimdShaSigma3              0      0.00%     61.11% # Type of FU issued
system.cpu.iq.FU_type_0::MemRead             11102844     31.56%     92.67% # Type of FU issued
system.cpu.iq.FU_type_0::MemWrite             2577020      7.33%    100.00% # Type of FU issued
system.cpu.iq.FU_type_0::FloatMemRead              70      0.00%    100.00% # Type of FU issued
system.cpu.iq.FU_type_0::FloatMemWrite            428      0.00%    100.00% # Type of FU issued
system.cpu.iq.FU_type_0::IprAccess                  0      0.00%    100.00% # Type of FU issued
system.cpu.iq.FU_type_0::InstPrefetch               0      0.00%    100.00% # Type of FU issued
system.cpu.iq.FU_type_0::total               35177205                       # Type of FU issued
system.cpu.iq.rate                           1.439360                       # Inst issue rate
system.cpu.iq.fu_busy_cnt                     5997019                       # FU busy when requested
system.cpu.iq.fu_busy_rate                   0.170480                       # FU busy rate (busy events/executed inst)
system.cpu.iq.int_inst_queue_reads          100833942                       # Number of integer instruction queue reads
system.cpu.iq.int_inst_queue_writes          42587743                       # Number of integer instruction queue writes
system.cpu.iq.int_inst_queue_wakeup_accesses     34661185                       # Number of integer instruction queue wakeup accesses
system.cpu.iq.fp_inst_queue_reads                4558                       # Number of floating instruction queue reads
system.cpu.iq.fp_inst_queue_writes               2055                       # Number of floating instruction queue writes
system.cpu.iq.fp_inst_queue_wakeup_accesses         1985                       # Number of floating instruction queue wakeup accesses
system.cpu.iq.vec_inst_queue_reads                  0                       # Number of vector instruction queue reads
system.cpu.iq.vec_inst_queue_writes                 0                       # Number of vector instruction queue writes
system.cpu.iq.vec_inst_queue_wakeup_accesses            0                       # Number of vector instruction queue wakeup accesses
system.cpu.iq.int_alu_accesses               41171337                       # Number of integer alu accesses
system.cpu.iq.fp_alu_accesses                    2557                       # Number of floating point alu accesses
system.cpu.iq.vec_alu_accesses                      0                       # Number of vector alu accesses
system.cpu.iew.lsq.thread0.forwLoads          4931964                       # Number of loads that had data forwarded from stores
system.cpu.iew.lsq.thread0.invAddrLoads             0                       # Number of loads ignored due to an invalid address
system.cpu.iew.lsq.thread0.squashedLoads      1655224                       # Number of loads squashed
system.cpu.iew.lsq.thread0.ignoredResponses         1081                       # Number of memory responses ignored because the instruction is squashed
system.cpu.iew.lsq.thread0.memOrderViolation          181                       # Number of memory ordering violations
system.cpu.iew.lsq.thread0.squashedStores       396566                       # Number of stores squashed
system.cpu.iew.lsq.thread0.invAddrSwpfs             0                       # Number of software prefetches ignored due to an invalid address
system.cpu.iew.lsq.thread0.blockedLoads             0                       # Number of blocked loads due to partial load-store forwarding
system.cpu.iew.lsq.thread0.rescheduledLoads            1                       # Number of loads that were rescheduled
system.cpu.iew.lsq.thread0.cacheBlocked             0                       # Number of times an access to memory failed due to the cache being blocked
system.cpu.iew.iewIdleCycles                        0                       # Number of cycles IEW is idle
system.cpu.iew.iewSquashCycles                 121023                       # Number of cycles IEW is squashing
system.cpu.iew.iewBlockCycles                  232021                       # Number of cycles IEW is blocking
system.cpu.iew.iewUnblockCycles                  1690                       # Number of cycles IEW is unblocking
system.cpu.iew.iewDispatchedInsts            37523270                       # Number of instructions dispatched to IQ
system.cpu.iew.iewDispSquashedInsts              1320                       # Number of squashed instructions skipped by dispatch
system.cpu.iew.iewDispLoadInsts              11928363                       # Number of dispatched load instructions
system.cpu.iew.iewDispStoreInsts              2846373                       # Number of dispatched store instructions
system.cpu.iew.iewDispNonSpecInsts                 48                       # Number of dispatched non-speculative instructions
system.cpu.iew.iewIQFullEvents                     23                       # Number of times the IQ has become full, causing a stall
system.cpu.iew.iewLSQFullEvents                  1649                       # Number of times the LSQ has become full, causing a stall
system.cpu.iew.memOrderViolationEvents            181                       # Number of memory order violations
system.cpu.iew.predictedTakenIncorrect          58873                       # Number of branches that were predicted taken incorrectly
system.cpu.iew.predictedNotTakenIncorrect        62233                       # Number of branches that were predicted not taken incorrectly
system.cpu.iew.branchMispredicts               121106                       # Number of branch mispredicts detected at execute
system.cpu.iew.iewExecutedInsts              34839321                       # Number of executed instructions
system.cpu.iew.iewExecLoadInsts              10996772                       # Number of load instructions executed
system.cpu.iew.iewExecSquashedInsts            337884                       # Number of squashed instructions skipped in execute
system.cpu.iew.exec_swp                             0                       # number of swp insts executed
system.cpu.iew.exec_nop                             0                       # number of nop insts executed
system.cpu.iew.exec_refs                     13566761                       # number of memory reference insts executed
system.cpu.iew.exec_branches                  2011695                       # Number of branches executed
system.cpu.iew.exec_stores                    2569989                       # Number of stores executed
system.cpu.iew.exec_rate                     1.425535                       # Inst execution rate
system.cpu.iew.wb_sent                       34798404                       # cumulative count of insts sent to commit
system.cpu.iew.wb_count                      34663170                       # cumulative count of insts written-back
system.cpu.iew.wb_producers                  29491086                       # num instructions producing a value
system.cpu.iew.wb_consumers                  31578112                       # num instructions consuming a value
system.cpu.iew.wb_rate                       1.418327                       # insts written-back per cycle
system.cpu.iew.wb_fanout                     0.933909                       # average fanout of values written-back
system.cpu.commit.commitSquashedInsts         4873983                       # The number of squashed insts skipped by commit
system.cpu.commit.commitNonSpecStalls              12                       # The number of times commit has been forced to stall to communicate backwards
system.cpu.commit.branchMispredicts            120853                       # The number of times a branch was mispredicted
system.cpu.commit.committed_per_cycle::samples     24064045                       # Number of insts commited each cycle
system.cpu.commit.committed_per_cycle::mean     1.348772                       # Number of insts commited each cycle
system.cpu.commit.committed_per_cycle::stdev     0.845780                       # Number of insts commited each cycle
system.cpu.commit.committed_per_cycle::underflows            0      0.00%      0.00% # Number of insts commited each cycle
system.cpu.commit.committed_per_cycle::0      5874206     24.41%     24.41% # Number of insts commited each cycle
system.cpu.commit.committed_per_cycle::1      3922758     16.30%     40.71% # Number of insts commited each cycle
system.cpu.commit.committed_per_cycle::2     14267081     59.29%    100.00% # Number of insts commited each cycle
system.cpu.commit.committed_per_cycle::overflows            0      0.00%    100.00% # Number of insts commited each cycle
system.cpu.commit.committed_per_cycle::min_value            0                       # Number of insts commited each cycle
system.cpu.commit.committed_per_cycle::max_value            2                       # Number of insts commited each cycle
system.cpu.commit.committed_per_cycle::total     24064045                       # Number of insts commited each cycle
system.cpu.commit.committedInsts             21563018                       # Number of instructions committed
system.cpu.commit.committedOps               32456920                       # Number of ops (including micro ops) committed
system.cpu.commit.swp_count                         0                       # Number of s/w prefetches committed
system.cpu.commit.refs                       12722946                       # Number of memory references committed
system.cpu.commit.loads                      10273139                       # Number of loads committed
system.cpu.commit.membars                           0                       # Number of memory barriers committed
system.cpu.commit.branches                    1989191                       # Number of branches committed
system.cpu.commit.vec_insts                         0                       # Number of committed Vector instructions.
system.cpu.commit.fp_insts                       1975                       # Number of committed floating point instructions.
system.cpu.commit.int_insts                  32455378                       # Number of committed integer instructions.
system.cpu.commit.function_calls                 4360                       # Number of function calls committed.
system.cpu.commit.op_class_0::No_OpClass          105      0.00%      0.00% # Class of committed instruction
system.cpu.commit.op_class_0::IntAlu         19729940     60.79%     60.79% # Class of committed instruction
system.cpu.commit.op_class_0::IntMult            2924      0.01%     60.80% # Class of committed instruction
system.cpu.commit.op_class_0::IntDiv               21      0.00%     60.80% # Class of committed instruction
system.cpu.commit.op_class_0::FloatAdd             10      0.00%     60.80% # Class of committed instruction
system.cpu.commit.op_class_0::FloatCmp              0      0.00%     60.80% # Class of committed instruction
system.cpu.commit.op_class_0::FloatCvt              0      0.00%     60.80% # Class of committed instruction
system.cpu.commit.op_class_0::FloatMult             0      0.00%     60.80% # Class of committed instruction
system.cpu.commit.op_class_0::FloatMultAcc            0      0.00%     60.80% # Class of committed instruction
system.cpu.commit.op_class_0::FloatDiv              0      0.00%     60.80% # Class of committed instruction
system.cpu.commit.op_class_0::FloatMisc             0      0.00%     60.80% # Class of committed instruction
system.cpu.commit.op_class_0::FloatSqrt             0      0.00%     60.80% # Class of committed instruction
system.cpu.commit.op_class_0::SimdAdd             374      0.00%     60.80% # Class of committed instruction
system.cpu.commit.op_class_0::SimdAddAcc            0      0.00%     60.80% # Class of committed instruction
system.cpu.commit.op_class_0::SimdAlu              76      0.00%     60.80% # Class of committed instruction
system.cpu.commit.op_class_0::SimdCmp               0      0.00%     60.80% # Class of committed instruction
system.cpu.commit.op_class_0::SimdCvt             116      0.00%     60.80% # Class of committed instruction
system.cpu.commit.op_class_0::SimdMisc            222      0.00%     60.80% # Class of committed instruction
system.cpu.commit.op_class_0::SimdMult              0      0.00%     60.80% # Class of committed instruction
system.cpu.commit.op_class_0::SimdMultAcc            0      0.00%     60.80% # Class of committed instruction
system.cpu.commit.op_class_0::SimdShift           186      0.00%     60.80% # Class of committed instruction
system.cpu.commit.op_class_0::SimdShiftAcc            0      0.00%     60.80% # Class of committed instruction
system.cpu.commit.op_class_0::SimdSqrt              0      0.00%     60.80% # Class of committed instruction
system.cpu.commit.op_class_0::SimdFloatAdd            0      0.00%     60.80% # Class of committed instruction
system.cpu.commit.op_class_0::SimdFloatAlu            0      0.00%     60.80% # Class of committed instruction
system.cpu.commit.op_class_0::SimdFloatCmp            0      0.00%     60.80% # Class of committed instruction
system.cpu.commit.op_class_0::SimdFloatCvt            0      0.00%     60.80% # Class of committed instruction
system.cpu.commit.op_class_0::SimdFloatDiv            0      0.00%     60.80% # Class of committed instruction
system.cpu.commit.op_class_0::SimdFloatMisc            0      0.00%     60.80% # Class of committed instruction
system.cpu.commit.op_class_0::SimdFloatMult            0      0.00%     60.80% # Class of committed instruction
system.cpu.commit.op_class_0::SimdFloatMultAcc            0      0.00%     60.80% # Class of committed instruction
system.cpu.commit.op_class_0::SimdFloatSqrt            0      0.00%     60.80% # Class of committed instruction
system.cpu.commit.op_class_0::SimdAes               0      0.00%     60.80% # Class of committed instruction
system.cpu.commit.op_class_0::SimdAesMix            0      0.00%     60.80% # Class of committed instruction
system.cpu.commit.op_class_0::SimdSha1Hash            0      0.00%     60.80% # Class of committed instruction
system.cpu.commit.op_class_0::SimdSha1Hash2            0      0.00%     60.80% # Class of committed instruction
system.cpu.commit.op_class_0::SimdSha256Hash            0      0.00%     60.80% # Class of committed instruction
system.cpu.commit.op_class_0::SimdSha256Hash2            0      0.00%     60.80% # Class of committed instruction
system.cpu.commit.op_class_0::SimdShaSigma2            0      0.00%     60.80% # Class of committed instruction
system.cpu.commit.op_class_0::SimdShaSigma3            0      0.00%     60.80% # Class of committed instruction
system.cpu.commit.op_class_0::MemRead        10273075     31.65%     92.45% # Class of committed instruction
system.cpu.commit.op_class_0::MemWrite        2449392      7.55%    100.00% # Class of committed instruction
system.cpu.commit.op_class_0::FloatMemRead           64      0.00%    100.00% # Class of committed instruction
system.cpu.commit.op_class_0::FloatMemWrite          415      0.00%    100.00% # Class of committed instruction
system.cpu.commit.op_class_0::IprAccess             0      0.00%    100.00% # Class of committed instruction
system.cpu.commit.op_class_0::InstPrefetch            0      0.00%    100.00% # Class of committed instruction
system.cpu.commit.op_class_0::total          32456920                       # Class of committed instruction
system.cpu.commit.bw_lim_events              14267081                       # number cycles where commit BW limit reached
system.cpu.rob.rob_reads                     47127867                       # The number of ROB reads
system.cpu.rob.rob_writes                    75012379                       # The number of ROB writes
system.cpu.timesIdled                             297                       # Number of times that the entire CPU went into an idle state and unscheduled itself
system.cpu.idleCycles                           24860                       # Total number of cycles that the CPU has spent unscheduled due to idling
system.cpu.committedInsts                    21563018                       # Number of Instructions Simulated
system.cpu.committedOps                      32456920                       # Number of Ops (including micro ops) Simulated
system.cpu.cpi                               1.133398                       # CPI: Cycles Per Instruction
system.cpu.cpi_total                         1.133398                       # CPI: Total CPI of All Threads
system.cpu.ipc                               0.882303                       # IPC: Instructions Per Cycle
system.cpu.ipc_total                         0.882303                       # IPC: Total IPC of All Threads
system.cpu.int_regfile_reads                 50286521                       # number of integer regfile reads
system.cpu.int_regfile_writes                30217847                       # number of integer regfile writes
system.cpu.fp_regfile_reads                      3828                       # number of floating regfile reads
system.cpu.fp_regfile_writes                     1507                       # number of floating regfile writes
system.cpu.cc_regfile_reads                  10038808                       # number of cc regfile reads
system.cpu.cc_regfile_writes                 12425467                       # number of cc regfile writes
system.cpu.misc_regfile_reads                17811741                       # number of misc regfile reads
system.cpu.dcache.tags.pwrStateResidencyTicks::UNDEFINED  12219738000                       # Cumulative time (in ticks) in various power states
system.cpu.dcache.tags.tagsinuse           243.549035                       # Cycle average of tags in use
system.cpu.dcache.tags.total_refs             8514447                       # Total number of references to valid blocks.
system.cpu.dcache.tags.sampled_refs               322                       # Sample count of references to valid blocks.
system.cpu.dcache.tags.avg_refs          26442.381988                       # Average number of references to valid blocks.
system.cpu.dcache.tags.warmup_cycle            170000                       # Cycle when the warmup percentage was hit.
system.cpu.dcache.tags.occ_blocks::.cpu.data   243.549035                       # Average occupied blocks per requestor
system.cpu.dcache.tags.occ_percent::.cpu.data     0.951363                       # Average percentage of cache occupancy
system.cpu.dcache.tags.occ_percent::total     0.951363                       # Average percentage of cache occupancy
system.cpu.dcache.tags.occ_task_id_blocks::1024          254                       # Occupied blocks per task id
system.cpu.dcache.tags.age_task_id_blocks_1024::0           40                       # Occupied blocks per task id
system.cpu.dcache.tags.age_task_id_blocks_1024::4          214                       # Occupied blocks per task id
system.cpu.dcache.tags.occ_task_id_percent::1024     0.992188                       # Percentage of cache occupancy per task id
system.cpu.dcache.tags.tag_accesses          68116770                       # Number of tag accesses
system.cpu.dcache.tags.data_accesses         68116770                       # Number of data accesses
system.cpu.dcache.pwrStateResidencyTicks::UNDEFINED  12219738000                       # Cumulative time (in ticks) in various power states
system.cpu.dcache.ReadReq_hits::.cpu.data      6064511                       # number of ReadReq hits
system.cpu.dcache.ReadReq_hits::total         6064511                       # number of ReadReq hits
system.cpu.dcache.WriteReq_hits::.cpu.data      2449614                       # number of WriteReq hits
system.cpu.dcache.WriteReq_hits::total        2449614                       # number of WriteReq hits
system.cpu.dcache.demand_hits::.cpu.data      8514125                       # number of demand (read+write) hits
system.cpu.dcache.demand_hits::total          8514125                       # number of demand (read+write) hits
system.cpu.dcache.overall_hits::.cpu.data      8514125                       # number of overall hits
system.cpu.dcache.overall_hits::total         8514125                       # number of overall hits
system.cpu.dcache.ReadReq_misses::.cpu.data          238                       # number of ReadReq misses
system.cpu.dcache.ReadReq_misses::total           238                       # number of ReadReq misses
system.cpu.dcache.WriteReq_misses::.cpu.data          193                       # number of WriteReq misses
system.cpu.dcache.WriteReq_misses::total          193                       # number of WriteReq misses
system.cpu.dcache.demand_misses::.cpu.data          431                       # number of demand (read+write) misses
system.cpu.dcache.demand_misses::total            431                       # number of demand (read+write) misses
system.cpu.dcache.overall_misses::.cpu.data          431                       # number of overall misses
system.cpu.dcache.overall_misses::total           431                       # number of overall misses
system.cpu.dcache.ReadReq_miss_latency::.cpu.data     21018000                       # number of ReadReq miss cycles
system.cpu.dcache.ReadReq_miss_latency::total     21018000                       # number of ReadReq miss cycles
system.cpu.dcache.WriteReq_miss_latency::.cpu.data     17051000                       # number of WriteReq miss cycles
system.cpu.dcache.WriteReq_miss_latency::total     17051000                       # number of WriteReq miss cycles
system.cpu.dcache.demand_miss_latency::.cpu.data     38069000                       # number of demand (read+write) miss cycles
system.cpu.dcache.demand_miss_latency::total     38069000                       # number of demand (read+write) miss cycles
system.cpu.dcache.overall_miss_latency::.cpu.data     38069000                       # number of overall miss cycles
system.cpu.dcache.overall_miss_latency::total     38069000                       # number of overall miss cycles
system.cpu.dcache.ReadReq_accesses::.cpu.data      6064749                       # number of ReadReq accesses(hits+misses)
system.cpu.dcache.ReadReq_accesses::total      6064749                       # number of ReadReq accesses(hits+misses)
system.cpu.dcache.WriteReq_accesses::.cpu.data      2449807                       # number of WriteReq accesses(hits+misses)
system.cpu.dcache.WriteReq_accesses::total      2449807                       # number of WriteReq accesses(hits+misses)
system.cpu.dcache.demand_accesses::.cpu.data      8514556                       # number of demand (read+write) accesses
system.cpu.dcache.demand_accesses::total      8514556                       # number of demand (read+write) accesses
system.cpu.dcache.overall_accesses::.cpu.data      8514556                       # number of overall (read+write) accesses
system.cpu.dcache.overall_accesses::total      8514556                       # number of overall (read+write) accesses
system.cpu.dcache.ReadReq_miss_rate::.cpu.data     0.000039                       # miss rate for ReadReq accesses
system.cpu.dcache.ReadReq_miss_rate::total     0.000039                       # miss rate for ReadReq accesses
system.cpu.dcache.WriteReq_miss_rate::.cpu.data     0.000079                       # miss rate for WriteReq accesses
system.cpu.dcache.WriteReq_miss_rate::total     0.000079                       # miss rate for WriteReq accesses
system.cpu.dcache.demand_miss_rate::.cpu.data     0.000051                       # miss rate for demand accesses
system.cpu.dcache.demand_miss_rate::total     0.000051                       # miss rate for demand accesses
system.cpu.dcache.overall_miss_rate::.cpu.data     0.000051                       # miss rate for overall accesses
system.cpu.dcache.overall_miss_rate::total     0.000051                       # miss rate for overall accesses
system.cpu.dcache.ReadReq_avg_miss_latency::.cpu.data 88310.924370                       # average ReadReq miss latency
system.cpu.dcache.ReadReq_avg_miss_latency::total 88310.924370                       # average ReadReq miss latency
system.cpu.dcache.WriteReq_avg_miss_latency::.cpu.data 88347.150259                       # average WriteReq miss latency
system.cpu.dcache.WriteReq_avg_miss_latency::total 88347.150259                       # average WriteReq miss latency
system.cpu.dcache.demand_avg_miss_latency::.cpu.data 88327.146172                       # average overall miss latency
system.cpu.dcache.demand_avg_miss_latency::total 88327.146172                       # average overall miss latency
system.cpu.dcache.overall_avg_miss_latency::.cpu.data 88327.146172                       # average overall miss latency
system.cpu.dcache.overall_avg_miss_latency::total 88327.146172                       # average overall miss latency
[...]
system.l3bus.snoop_fanout::1                        0      0.00%    100.00% # Request fanout histogram
system.l3bus.snoop_fanout::overflows                0      0.00%    100.00% # Request fanout histogram
system.l3bus.snoop_fanout::min_value                0                       # Request fanout histogram
system.l3bus.snoop_fanout::max_value                0                       # Request fanout histogram
system.l3bus.snoop_fanout::total                  798                       # Request fanout histogram
system.l3bus.reqLayer0.occupancy               399000                       # Layer occupancy (ticks)
system.l3bus.reqLayer0.utilization                0.0                       # Layer utilization (%)
system.l3bus.respLayer0.occupancy             1995000                       # Layer occupancy (ticks)
system.l3bus.respLayer0.utilization               0.0                       # Layer utilization (%)
system.l3cache.tags.pwrStateResidencyTicks::UNDEFINED  12219738000                       # Cumulative time (in ticks) in various power states
system.l3cache.tags.tagsinuse              658.797371                       # Cycle average of tags in use
system.l3cache.tags.total_refs                    798                       # Total number of references to valid blocks.
system.l3cache.tags.sampled_refs                  798                       # Sample count of references to valid blocks.
system.l3cache.tags.avg_refs                        1                       # Average number of references to valid blocks.
system.l3cache.tags.warmup_cycle                76000                       # Cycle when the warmup percentage was hit.
system.l3cache.tags.occ_blocks::.cpu.inst   379.442004                       # Average occupied blocks per requestor
system.l3cache.tags.occ_blocks::.cpu.data   279.355367                       # Average occupied blocks per requestor
system.l3cache.tags.occ_percent::.cpu.inst     0.011580                       # Average percentage of cache occupancy
system.l3cache.tags.occ_percent::.cpu.data     0.008525                       # Average percentage of cache occupancy
system.l3cache.tags.occ_percent::total       0.020105                       # Average percentage of cache occupancy
system.l3cache.tags.occ_task_id_blocks::1024          798                       # Occupied blocks per task id
system.l3cache.tags.age_task_id_blocks_1024::0          138                       # Occupied blocks per task id
system.l3cache.tags.age_task_id_blocks_1024::4          660                       # Occupied blocks per task id
system.l3cache.tags.occ_task_id_percent::1024     0.024353                       # Percentage of cache occupancy per task id
system.l3cache.tags.tag_accesses                13566                       # Number of tag accesses
system.l3cache.tags.data_accesses               13566                       # Number of data accesses
system.l3cache.pwrStateResidencyTicks::UNDEFINED  12219738000                       # Cumulative time (in ticks) in various power states
system.l3cache.ReadExReq_misses::.cpu.data          191                       # number of ReadExReq misses
system.l3cache.ReadExReq_misses::total            191                       # number of ReadExReq misses
system.l3cache.ReadSharedReq_misses::.cpu.inst          485                       # number of ReadSharedReq misses
system.l3cache.ReadSharedReq_misses::.cpu.data          122                       # number of ReadSharedReq misses
system.l3cache.ReadSharedReq_misses::total          607                       # number of ReadSharedReq misses
system.l3cache.demand_misses::.cpu.inst           485                       # number of demand (read+write) misses
system.l3cache.demand_misses::.cpu.data           313                       # number of demand (read+write) misses
system.l3cache.demand_misses::total               798                       # number of demand (read+write) misses
system.l3cache.overall_misses::.cpu.inst          485                       # number of overall misses
system.l3cache.overall_misses::.cpu.data          313                       # number of overall misses
system.l3cache.overall_misses::total              798                       # number of overall misses
system.l3cache.ReadExReq_miss_latency::.cpu.data     14351000                       # number of ReadExReq miss cycles
system.l3cache.ReadExReq_miss_latency::total     14351000                       # number of ReadExReq miss cycles
system.l3cache.ReadSharedReq_miss_latency::.cpu.inst     33766500                       # number of ReadSharedReq miss cycles
system.l3cache.ReadSharedReq_miss_latency::.cpu.data     11173000                       # number of ReadSharedReq miss cycles
system.l3cache.ReadSharedReq_miss_latency::total     44939500                       # number of ReadSharedReq miss cycles
system.l3cache.demand_miss_latency::.cpu.inst     33766500                       # number of demand (read+write) miss cycles
system.l3cache.demand_miss_latency::.cpu.data     25524000                       # number of demand (read+write) miss cycles
system.l3cache.demand_miss_latency::total     59290500                       # number of demand (read+write) miss cycles
system.l3cache.overall_miss_latency::.cpu.inst     33766500                       # number of overall miss cycles
system.l3cache.overall_miss_latency::.cpu.data     25524000                       # number of overall miss cycles
system.l3cache.overall_miss_latency::total     59290500                       # number of overall miss cycles
system.l3cache.ReadExReq_accesses::.cpu.data          191                       # number of ReadExReq accesses(hits+misses)
system.l3cache.ReadExReq_accesses::total          191                       # number of ReadExReq accesses(hits+misses)
system.l3cache.ReadSharedReq_accesses::.cpu.inst          485                       # number of ReadSharedReq accesses(hits+misses)
system.l3cache.ReadSharedReq_accesses::.cpu.data          122                       # number of ReadSharedReq accesses(hits+misses)
system.l3cache.ReadSharedReq_accesses::total          607                       # number of ReadSharedReq accesses(hits+misses)
system.l3cache.demand_accesses::.cpu.inst          485                       # number of demand (read+write) accesses
system.l3cache.demand_accesses::.cpu.data          313                       # number of demand (read+write) accesses
system.l3cache.demand_accesses::total             798                       # number of demand (read+write) accesses
system.l3cache.overall_accesses::.cpu.inst          485                       # number of overall (read+write) accesses
system.l3cache.overall_accesses::.cpu.data          313                       # number of overall (read+write) accesses
system.l3cache.overall_accesses::total            798                       # number of overall (read+write) accesses
system.l3cache.ReadExReq_miss_rate::.cpu.data            1                       # miss rate for ReadExReq accesses
system.l3cache.ReadExReq_miss_rate::total            1                       # miss rate for ReadExReq accesses
system.l3cache.ReadSharedReq_miss_rate::.cpu.inst            1                       # miss rate for ReadSharedReq accesses
system.l3cache.ReadSharedReq_miss_rate::.cpu.data            1                       # miss rate for ReadSharedReq accesses
system.l3cache.ReadSharedReq_miss_rate::total            1                       # miss rate for ReadSharedReq accesses
system.l3cache.demand_miss_rate::.cpu.inst            1                       # miss rate for demand accesses
system.l3cache.demand_miss_rate::.cpu.data            1                       # miss rate for demand accesses
system.l3cache.demand_miss_rate::total              1                       # miss rate for demand accesses
system.l3cache.overall_miss_rate::.cpu.inst            1                       # miss rate for overall accesses
system.l3cache.overall_miss_rate::.cpu.data            1                       # miss rate for overall accesses
system.l3cache.overall_miss_rate::total             1                       # miss rate for overall accesses
system.l3cache.ReadExReq_avg_miss_latency::.cpu.data 75136.125654                       # average ReadExReq miss latency
system.l3cache.ReadExReq_avg_miss_latency::total 75136.125654                       # average ReadExReq miss latency
system.l3cache.ReadSharedReq_avg_miss_latency::.cpu.inst 69621.649485                       # average ReadSharedReq miss latency
system.l3cache.ReadSharedReq_avg_miss_latency::.cpu.data 91581.967213                       # average ReadSharedReq miss latency
system.l3cache.ReadSharedReq_avg_miss_latency::total 74035.420099                       # average ReadSharedReq miss latency
system.l3cache.demand_avg_miss_latency::.cpu.inst 69621.649485                       # average overall miss latency
system.l3cache.demand_avg_miss_latency::.cpu.data 81546.325879                       # average overall miss latency
system.l3cache.demand_avg_miss_latency::total 74298.872180                       # average overall miss latency
system.l3cache.overall_avg_miss_latency::.cpu.inst 69621.649485                       # average overall miss latency
system.l3cache.overall_avg_miss_latency::.cpu.data 81546.325879                       # average overall miss latency
system.l3cache.overall_avg_miss_latency::total 74298.872180                       # average overall miss latency
system.l3cache.blocked_cycles::no_mshrs             0                       # number of cycles access was blocked
system.l3cache.blocked_cycles::no_targets            0                       # number of cycles access was blocked
system.l3cache.blocked::no_mshrs                    0                       # number of cycles access was blocked
system.l3cache.blocked::no_targets                  0                       # number of cycles access was blocked
system.l3cache.avg_blocked_cycles::no_mshrs          nan                       # average number of cycles each access was blocked
system.l3cache.avg_blocked_cycles::no_targets          nan                       # average number of cycles each access was blocked
system.l3cache.ReadExReq_mshr_misses::.cpu.data          191                       # number of ReadExReq MSHR misses
system.l3cache.ReadExReq_mshr_misses::total          191                       # number of ReadExReq MSHR misses
system.l3cache.ReadSharedReq_mshr_misses::.cpu.inst          485                       # number of ReadSharedReq MSHR misses
system.l3cache.ReadSharedReq_mshr_misses::.cpu.data          122                       # number of ReadSharedReq MSHR misses
system.l3cache.ReadSharedReq_mshr_misses::total          607                       # number of ReadSharedReq MSHR misses
system.l3cache.demand_mshr_misses::.cpu.inst          485                       # number of demand (read+write) MSHR misses
system.l3cache.demand_mshr_misses::.cpu.data          313                       # number of demand (read+write) MSHR misses
system.l3cache.demand_mshr_misses::total          798                       # number of demand (read+write) MSHR misses
system.l3cache.overall_mshr_misses::.cpu.inst          485                       # number of overall MSHR misses
system.l3cache.overall_mshr_misses::.cpu.data          313                       # number of overall MSHR misses
system.l3cache.overall_mshr_misses::total          798                       # number of overall MSHR misses
system.l3cache.ReadExReq_mshr_miss_latency::.cpu.data     13969000                       # number of ReadExReq MSHR miss cycles
system.l3cache.ReadExReq_mshr_miss_latency::total     13969000                       # number of ReadExReq MSHR miss cycles
system.l3cache.ReadSharedReq_mshr_miss_latency::.cpu.inst     32796500                       # number of ReadSharedReq MSHR miss cycles
system.l3cache.ReadSharedReq_mshr_miss_latency::.cpu.data     10929000                       # number of ReadSharedReq MSHR miss cycles
system.l3cache.ReadSharedReq_mshr_miss_latency::total     43725500                       # number of ReadSharedReq MSHR miss cycles
system.l3cache.demand_mshr_miss_latency::.cpu.inst     32796500                       # number of demand (read+write) MSHR miss cycles
system.l3cache.demand_mshr_miss_latency::.cpu.data     24898000                       # number of demand (read+write) MSHR miss cycles
system.l3cache.demand_mshr_miss_latency::total     57694500                       # number of demand (read+write) MSHR miss cycles
system.l3cache.overall_mshr_miss_latency::.cpu.inst     32796500                       # number of overall MSHR miss cycles
system.l3cache.overall_mshr_miss_latency::.cpu.data     24898000                       # number of overall MSHR miss cycles
system.l3cache.overall_mshr_miss_latency::total     57694500                       # number of overall MSHR miss cycles
system.l3cache.ReadExReq_mshr_miss_rate::.cpu.data            1                       # mshr miss rate for ReadExReq accesses
system.l3cache.ReadExReq_mshr_miss_rate::total            1                       # mshr miss rate for ReadExReq accesses
system.l3cache.ReadSharedReq_mshr_miss_rate::.cpu.inst            1                       # mshr miss rate for ReadSharedReq accesses
system.l3cache.ReadSharedReq_mshr_miss_rate::.cpu.data            1                       # mshr miss rate for ReadSharedReq accesses
system.l3cache.ReadSharedReq_mshr_miss_rate::total            1                       # mshr miss rate for ReadSharedReq accesses
system.l3cache.demand_mshr_miss_rate::.cpu.inst            1                       # mshr miss rate for demand accesses
system.l3cache.demand_mshr_miss_rate::.cpu.data            1                       # mshr miss rate for demand accesses
system.l3cache.demand_mshr_miss_rate::total            1                       # mshr miss rate for demand accesses
system.l3cache.overall_mshr_miss_rate::.cpu.inst            1                       # mshr miss rate for overall accesses
system.l3cache.overall_mshr_miss_rate::.cpu.data            1                       # mshr miss rate for overall accesses
system.l3cache.overall_mshr_miss_rate::total            1                       # mshr miss rate for overall accesses
system.l3cache.ReadExReq_avg_mshr_miss_latency::.cpu.data 73136.125654                       # average ReadExReq mshr miss latency
system.l3cache.ReadExReq_avg_mshr_miss_latency::total 73136.125654                       # average ReadExReq mshr miss latency
system.l3cache.ReadSharedReq_avg_mshr_miss_latency::.cpu.inst 67621.649485                       # average ReadSharedReq mshr miss latency
system.l3cache.ReadSharedReq_avg_mshr_miss_latency::.cpu.data 89581.967213                       # average ReadSharedReq mshr miss latency
system.l3cache.ReadSharedReq_avg_mshr_miss_latency::total 72035.420099                       # average ReadSharedReq mshr miss latency
system.l3cache.demand_avg_mshr_miss_latency::.cpu.inst 67621.649485                       # average overall mshr miss latency
system.l3cache.demand_avg_mshr_miss_latency::.cpu.data 79546.325879                       # average overall mshr miss latency
system.l3cache.demand_avg_mshr_miss_latency::total 72298.872180                       # average overall mshr miss latency
system.l3cache.overall_avg_mshr_miss_latency::.cpu.inst 67621.649485                       # average overall mshr miss latency
system.l3cache.overall_avg_mshr_miss_latency::.cpu.data 79546.325879                       # average overall mshr miss latency
system.l3cache.overall_avg_mshr_miss_latency::total 72298.872180                       # average overall mshr miss latency
system.l3cache.replacements                         0                       # number of replacements
system.membus.snoop_filter.tot_requests           798                       # Total number of requests made to the snoop filter.
system.membus.snoop_filter.hit_single_requests            0                       # Number of requests hitting in the snoop filter with a single holder of the requested data.
system.membus.snoop_filter.hit_multi_requests            0                       # Number of requests hitting in the snoop filter with multiple (>1) holders of the requested data.
system.membus.snoop_filter.tot_snoops               0                       # Total number of snoops made to the snoop filter.
system.membus.snoop_filter.hit_single_snoops            0                       # Number of snoops hitting in the snoop filter with a single holder of the requested data.
system.membus.snoop_filter.hit_multi_snoops            0                       # Number of snoops hitting in the snoop filter with multiple (>1) holders of the requested data.
system.membus.pwrStateResidencyTicks::UNDEFINED  12219738000                       # Cumulative time (in ticks) in various power states
system.membus.trans_dist::ReadResp                607                       # Transaction distribution
system.membus.trans_dist::ReadExReq               191                       # Transaction distribution
system.membus.trans_dist::ReadExResp              191                       # Transaction distribution
system.membus.trans_dist::ReadSharedReq           607                       # Transaction distribution
system.membus.pkt_count_system.l3cache.mem_side::system.mem_ctrl.port         1596                       # Packet count per connected master and slave (bytes)
system.membus.pkt_count_system.l3cache.mem_side::total         1596                       # Packet count per connected master and slave (bytes)
system.membus.pkt_count::total                   1596                       # Packet count per connected master and slave (bytes)
system.membus.pkt_size_system.l3cache.mem_side::system.mem_ctrl.port        51072                       # Cumulative packet size per connected master and slave (bytes)
system.membus.pkt_size_system.l3cache.mem_side::total        51072                       # Cumulative packet size per connected master and slave (bytes)
system.membus.pkt_size::total                   51072                       # Cumulative packet size per connected master and slave (bytes)
system.membus.snoops                                0                       # Total snoops (count)
system.membus.snoopTraffic                          0                       # Total snoop traffic (bytes)
system.membus.snoop_fanout::samples               798                       # Request fanout histogram
system.membus.snoop_fanout::mean                    0                       # Request fanout histogram
system.membus.snoop_fanout::stdev                   0                       # Request fanout histogram
system.membus.snoop_fanout::underflows              0      0.00%      0.00% # Request fanout histogram
system.membus.snoop_fanout::0                     798    100.00%    100.00% # Request fanout histogram
system.membus.snoop_fanout::1                       0      0.00%    100.00% # Request fanout histogram
system.membus.snoop_fanout::overflows               0      0.00%    100.00% # Request fanout histogram
system.membus.snoop_fanout::min_value               0                       # Request fanout histogram
system.membus.snoop_fanout::max_value               0                       # Request fanout histogram
system.membus.snoop_fanout::total                 798                       # Request fanout histogram
system.membus.reqLayer0.occupancy              399000                       # Layer occupancy (ticks)
system.membus.reqLayer0.utilization               0.0                       # Layer utilization (%)
system.membus.respLayer0.occupancy            2168000                       # Layer occupancy (ticks)
system.membus.respLayer0.utilization              0.0                       # Layer utilization (%)

---------- End Simulation Statistics   ----------