
---------- Begin Simulation Statistics ----------
sim_seconds                                  0.011209                       # Number of seconds simulated
sim_ticks                                 11208755000                       # Number of ticks simulated
final_tick                                11208755000                       # Number of ticks from beginning of simulation (restored from checkpoints and never reset)
sim_freq                                 1000000000000                       # Frequency of simulated ticks
host_inst_rate                                 399237                       # Simulator instruction rate (inst/s)
host_op_rate                                   678790                       # Simulator op (including micro ops) rate (op/s)
host_tick_rate                              372582414                       # Simulator tick rate (ticks/s)
host_mem_usage                               10373096                       # Number of bytes of host memory used
host_seconds                                    30.08                       # Real time elapsed on the host
sim_insts                                    12010628                       # Number of instructions simulated
sim_ops                                      20420699                       # Number of ops (including micro ops) simulated
system.clk_domain.voltage_domain.voltage            1                       # Voltage in Volts
system.clk_domain.clock                           500                       # Clock period in ticks
system.mem_ctrl.pwrStateResidencyTicks::UNDEFINED  11208755000                       # Cumulative time (in ticks) in various power states
system.mem_ctrl.bytes_read::.cpu.inst           36672                       # Number of bytes read from this memory
system.mem_ctrl.bytes_read::.cpu.data         4818496                       # Number of bytes read from this memory
system.mem_ctrl.bytes_read::total             4855168                       # Number of bytes read from this memory
system.mem_ctrl.bytes_inst_read::.cpu.inst        36672                       # Number of instructions bytes read from this memory
system.mem_ctrl.bytes_inst_read::total          36672                       # Number of instructions bytes read from this memory
system.mem_ctrl.bytes_written::.writebacks      2730496                       # Number of bytes written to this memory
system.mem_ctrl.bytes_written::total          2730496                       # Number of bytes written to this memory
system.mem_ctrl.num_reads::.cpu.inst              573                       # Number of read requests responded to by this memory
system.mem_ctrl.num_reads::.cpu.data            75289                       # Number of read requests responded to by this memory
system.mem_ctrl.num_reads::total                75862                       # Number of read requests responded to by this memory
system.mem_ctrl.num_writes::.writebacks         42664                       # Number of write requests responded to by this memory
system.mem_ctrl.num_writes::total               42664                       # Number of write requests responded to by this memory
system.mem_ctrl.bw_read::.cpu.inst            3271728                       # Total read bandwidth from this memory (bytes/s)
system.mem_ctrl.bw_read::.cpu.data          429886816                       # Total read bandwidth from this memory (bytes/s)
system.mem_ctrl.bw_read::total              433158544                       # Total read bandwidth from this memory (bytes/s)
system.mem_ctrl.bw_inst_read::.cpu.inst       3271728                       # Instruction read bandwidth from this memory (bytes/s)
system.mem_ctrl.bw_inst_read::total           3271728                       # Instruction read bandwidth from this memory (bytes/s)
system.mem_ctrl.bw_write::.writebacks       243603861                       # Write bandwidth from this memory (bytes/s)
system.mem_ctrl.bw_write::total             243603861                       # Write bandwidth from this memory (bytes/s)
system.mem_ctrl.bw_total::.writebacks       243603861                       # Total bandwidth to/from this memory (bytes/s)
system.mem_ctrl.bw_total::.cpu.inst           3271728                       # Total bandwidth to/from this memory (bytes/s)
system.mem_ctrl.bw_total::.cpu.data         429886816                       # Total bandwidth to/from this memory (bytes/s)
system.mem_ctrl.bw_total::total             676762406                       # Total bandwidth to/from this memory (bytes/s)
system.mem_ctrl.avgPriority_.writebacks::samples     42664.00                       # Average QoS priority value for accepted requests
system.mem_ctrl.avgPriority_.cpu.inst::samples       573.00                       # Average QoS priority value for accepted requests
system.mem_ctrl.avgPriority_.cpu.data::samples     75289.00                       # Average QoS priority value for accepted requests
system.mem_ctrl.priorityMinLatency       0.000000018750                       # per QoS priority minimum request to response latency (s)
system.mem_ctrl.priorityMaxLatency       0.000071003500                       # per QoS priority maximum request to response latency (s)
system.mem_ctrl.numReadWriteTurnArounds          2480                       # Number of turnarounds from READ to WRITE
system.mem_ctrl.numWriteReadTurnArounds          2480                       # Number of turnarounds from WRITE to READ
system.mem_ctrl.numStayReadState               193695                       # Number of times bus staying in READ state
system.mem_ctrl.numStayWriteState               40292                       # Number of times bus staying in WRITE state
system.mem_ctrl.readReqs                        75862                       # Number of read requests accepted
system.mem_ctrl.writeReqs                       42664                       # Number of write requests accepted
system.mem_ctrl.readBursts                      75862                       # Number of DRAM read bursts, including those serviced by the write queue
system.mem_ctrl.writeBursts                     42664                       # Number of DRAM write bursts, including those merged in the write queue
system.mem_ctrl.bytesReadDRAM                 4855168                       # Total number of bytes read from DRAM
system.mem_ctrl.bytesReadWrQ                        0                       # Total number of bytes read from write queue
system.mem_ctrl.bytesWritten                  2728640                       # Total number of bytes written to DRAM
system.mem_ctrl.bytesReadSys                  4855168                       # Total read bytes from the system interface side
system.mem_ctrl.bytesWrittenSys               2730496                       # Total written bytes from the system interface side
system.mem_ctrl.servicedByWrQ                       0                       # Number of DRAM read bursts serviced by the write queue
system.mem_ctrl.mergedWrBursts                      0                       # Number of DRAM write bursts merged with an existing one
system.mem_ctrl.neitherReadNorWriteReqs             0                       # Number of requests that are neither read nor write
system.mem_ctrl.perBankRdBursts::0               4764                       # Per bank write bursts
system.mem_ctrl.perBankRdBursts::1               4703                       # Per bank write bursts
system.mem_ctrl.perBankRdBursts::2               4749                       # Per bank write bursts
system.mem_ctrl.perBankRdBursts::3               4744                       # Per bank write bursts
system.mem_ctrl.perBankRdBursts::4               4748                       # Per bank write bursts
system.mem_ctrl.perBankRdBursts::5               4775                       # Per bank write bursts
system.mem_ctrl.perBankRdBursts::6               4777                       # Per bank write bursts
system.mem_ctrl.perBankRdBursts::7               4781                       # Per bank write bursts
system.mem_ctrl.perBankRdBursts::8               4739                       # Per bank write bursts
system.mem_ctrl.perBankRdBursts::9               4767                       # Per bank write bursts
system.mem_ctrl.perBankRdBursts::10              4785                       # Per bank write bursts
system.mem_ctrl.perBankRdBursts::11              4684                       # Per bank write bursts
system.mem_ctrl.perBankRdBursts::12              4717                       # Per bank write bursts
system.mem_ctrl.perBankRdBursts::13              4685                       # Per bank write bursts
system.mem_ctrl.perBankRdBursts::14              4746                       # Per bank write bursts
system.mem_ctrl.perBankRdBursts::15              4698                       # Per bank write bursts
system.mem_ctrl.perBankWrBursts::0               2648                       # Per bank write bursts
system.mem_ctrl.perBankWrBursts::1               2628                       # Per bank write bursts
system.mem_ctrl.perBankWrBursts::2               2691                       # Per bank write bursts
system.mem_ctrl.perBankWrBursts::3               2689                       # Per bank write bursts
system.mem_ctrl.perBankWrBursts::4               2692                       # Per bank write bursts
system.mem_ctrl.perBankWrBursts::5               2692                       # Per bank write bursts
system.mem_ctrl.perBankWrBursts::6               2691                       # Per bank write bursts
system.mem_ctrl.perBankWrBursts::7               2716                       # Per bank write bursts
system.mem_ctrl.perBankWrBursts::8               2688                       # Per bank write bursts
system.mem_ctrl.perBankWrBursts::9               2706                       # Per bank write bursts
system.mem_ctrl.perBankWrBursts::10              2714                       # Per bank write bursts
system.mem_ctrl.perBankWrBursts::11              2628                       # Per bank write bursts
system.mem_ctrl.perBankWrBursts::12              2617                       # Per bank write bursts
system.mem_ctrl.perBankWrBursts::13              2601                       # Per bank write bursts
system.mem_ctrl.perBankWrBursts::14              2618                       # Per bank write bursts
system.mem_ctrl.perBankWrBursts::15              2616                       # Per bank write bursts
system.mem_ctrl.numRdRetry                          0                       # Number of times read queue was full causing retry
system.mem_ctrl.numWrRetry                          0                       # Number of times write queue was full causing retry
system.mem_ctrl.totGap                    11208719000                       # Total gap between requests
system.mem_ctrl.readPktSize::0                      0                       # Read request sizes (log2)
system.mem_ctrl.readPktSize::1                      0                       # Read request sizes (log2)
system.mem_ctrl.readPktSize::2                      0                       # Read request sizes (log2)
system.mem_ctrl.readPktSize::3                      0                       # Read request sizes (log2)
system.mem_ctrl.readPktSize::4                      0                       # Read request sizes (log2)
system.mem_ctrl.readPktSize::5                      0                       # Read request sizes (log2)
system.mem_ctrl.readPktSize::6                  75862                       # Read request sizes (log2)
system.mem_ctrl.writePktSize::0                     0                       # Write request sizes (log2)
system.mem_ctrl.writePktSize::1                     0                       # Write request sizes (log2)
system.mem_ctrl.writePktSize::2                     0                       # Write request sizes (log2)
system.mem_ctrl.writePktSize::3                     0                       # Write request sizes (log2)
system.mem_ctrl.writePktSize::4                     0                       # Write request sizes (log2)
system.mem_ctrl.writePktSize::5                     0                       # Write request sizes (log2)
system.mem_ctrl.writePktSize::6                 42664                       # Write request sizes (log2)
system.mem_ctrl.rdQLenPdf::0                    75534                       # What read queue length does an incoming req see
system.mem_ctrl.rdQLenPdf::1                      248                       # What read queue length does an incoming req see
system.mem_ctrl.rdQLenPdf::2                       64                       # What read queue length does an incoming req see
system.mem_ctrl.rdQLenPdf::3                       15                       # What read queue length does an incoming req see
system.mem_ctrl.rdQLenPdf::4                        1                       # What read queue length does an incoming req see
system.mem_ctrl.rdQLenPdf::5                        0                       # What read queue length does an incoming req see
system.mem_ctrl.rdQLenPdf::6                        0                       # What read queue length does an incoming req see
system.mem_ctrl.rdQLenPdf::7                        0                       # What read queue length does an incoming req see
system.mem_ctrl.rdQLenPdf::8                        0                       # What read queue length does an incoming req see
system.mem_ctrl.rdQLenPdf::9                        0                       # What read queue length does an incoming req see
system.mem_ctrl.rdQLenPdf::10                       0                       # What read queue length does an incoming req see
system.mem_ctrl.rdQLenPdf::11                       0                       # What read queue length does an incoming req see
system.mem_ctrl.rdQLenPdf::12                       0                       # What read queue length does an incoming req see
system.mem_ctrl.rdQLenPdf::13                       0                       # What read queue length does an incoming req see
system.mem_ctrl.rdQLenPdf::14                       0                       # What read queue length does an incoming req see
system.mem_ctrl.rdQLenPdf::15                       0                       # What read queue length does an incoming req see
system.mem_ctrl.rdQLenPdf::16                       0                       # What read queue length does an incoming req see
system.mem_ctrl.rdQLenPdf::17                       0                       # What read queue length does an incoming req see
system.mem_ctrl.rdQLenPdf::18                       0                       # What read queue length does an incoming req see
system.mem_ctrl.rdQLenPdf::19                       0                       # What read queue length does an incoming req see
system.mem_ctrl.rdQLenPdf::20                       0                       # What read queue length does an incoming req see
system.mem_ctrl.rdQLenPdf::21                       0                       # What read queue length does an incoming req see
system.mem_ctrl.rdQLenPdf::22                       0                       # What read queue length does an incoming req see
system.mem_ctrl.rdQLenPdf::23                       0                       # What read queue length does an incoming req see
system.mem_ctrl.rdQLenPdf::24                       0                       # What read queue length does an incoming req see
system.mem_ctrl.rdQLenPdf::25                       0                       # What read queue length does an incoming req see
system.mem_ctrl.rdQLenPdf::26                       0                       # What read queue length does an incoming req see
system.mem_ctrl.rdQLenPdf::27                       0                       # What read queue length does an incoming req see
system.mem_ctrl.rdQLenPdf::28                       0                       # What read queue length does an incoming req see
system.mem_ctrl.rdQLenPdf::29                       0                       # What read queue length does an incoming req see
system.mem_ctrl.rdQLenPdf::30                       0                       # What read queue length does an incoming req see
system.mem_ctrl.rdQLenPdf::31                       0                       # What read queue length does an incoming req see
system.mem_ctrl.wrQLenPdf::0                        1                       # What write queue length does an incoming req see
system.mem_ctrl.wrQLenPdf::1                        1                       # What write queue length does an incoming req see
system.mem_ctrl.wrQLenPdf::2                        1                       # What write queue length does an incoming req see
system.mem_ctrl.wrQLenPdf::3                        1                       # What write queue length does an incoming req see
system.mem_ctrl.wrQLenPdf::4                        1                       # What write queue length does an incoming req see
system.mem_ctrl.wrQLenPdf::5                        1                       # What write queue length does an incoming req see
system.mem_ctrl.wrQLenPdf::6                        1                       # What write queue length does an incoming req see
system.mem_ctrl.wrQLenPdf::7                        1                       # What write queue length does an incoming req see
system.mem_ctrl.wrQLenPdf::8                        1                       # What write queue length does an incoming req see
system.mem_ctrl.wrQLenPdf::9                        1                       # What write queue length does an incoming req see
system.mem_ctrl.wrQLenPdf::10                       1                       # What write queue length does an incoming req see
system.mem_ctrl.wrQLenPdf::11                       1                       # What write queue length does an incoming req see
system.mem_ctrl.wrQLenPdf::12                       1                       # What write queue length does an incoming req see
system.mem_ctrl.wrQLenPdf::13                       1                       # What write queue length does an incoming req see
system.mem_ctrl.wrQLenPdf::14                       1                       # What write queue length does an incoming req see
system.mem_ctrl.wrQLenPdf::15                     561                       # What write queue length does an incoming req see
system.mem_ctrl.wrQLenPdf::16                    2396                       # What write queue length does an incoming req see
system.mem_ctrl.wrQLenPdf::17                    2474                       # What write queue length does an incoming req see
system.mem_ctrl.wrQLenPdf::18                    2478                       # What write queue length does an incoming req see
system.mem_ctrl.wrQLenPdf::19                    2480                       # What write queue length does an incoming req see
system.mem_ctrl.wrQLenPdf::20                    2481                       # What write queue length does an incoming req see
system.mem_ctrl.wrQLenPdf::21                    2481                       # What write queue length does an incoming req see
system.mem_ctrl.wrQLenPdf::22                    2481                       # What write queue length does an incoming req see
system.mem_ctrl.wrQLenPdf::23                    2481                       # What write queue length does an incoming req see
system.mem_ctrl.wrQLenPdf::24                    2482                       # What write queue length does an incoming req see
system.mem_ctrl.wrQLenPdf::25                    2481                       # What write queue length does an incoming req see
system.mem_ctrl.wrQLenPdf::26                    2482                       # What write queue length does an incoming req see
system.mem_ctrl.wrQLenPdf::27                    2481                       # What write queue length does an incoming req see
system.mem_ctrl.wrQLenPdf::28                    2482                       # What write queue length does an incoming req see
system.mem_ctrl.wrQLenPdf::29                    2481                       # What write queue length does an incoming req see
system.mem_ctrl.wrQLenPdf::30                    2484                       # What write queue length does an incoming req see
system.mem_ctrl.wrQLenPdf::31                    2482                       # What write queue length does an incoming req see
system.mem_ctrl.wrQLenPdf::32                    2481                       # What write queue length does an incoming req see
system.mem_ctrl.wrQLenPdf::33                       0                       # What write queue length does an incoming req see
system.mem_ctrl.wrQLenPdf::34                       0                       # What write queue length does an incoming req see
system.mem_ctrl.wrQLenPdf::35                       0                       # What write queue length does an incoming req see
system.mem_ctrl.wrQLenPdf::36                       0                       # What write queue length does an incoming req see
system.mem_ctrl.wrQLenPdf::37                       0                       # What write queue length does an incoming req see
system.mem_ctrl.wrQLenPdf::38                       0                       # What write queue length does an incoming req see
system.mem_ctrl.wrQLenPdf::39                       0                       # What write queue length does an incoming req see
system.mem_ctrl.wrQLenPdf::40                       0                       # What write queue length does an incoming req see
system.mem_ctrl.wrQLenPdf::41                       0                       # What write queue length does an incoming req see
system.mem_ctrl.wrQLenPdf::42                       0                       # What write queue length does an incoming req see
system.mem_ctrl.wrQLenPdf::43                       0                       # What write queue length does an incoming req see
system.mem_ctrl.wrQLenPdf::44                       0                       # What write queue length does an incoming req see
system.mem_ctrl.wrQLenPdf::45                       0                       # What write queue length does an incoming req see
system.mem_ctrl.wrQLenPdf::46                       0                       # What write queue length does an incoming req see
system.mem_ctrl.wrQLenPdf::47                       0                       # What write queue length does an incoming req see
system.mem_ctrl.wrQLenPdf::48                       0                       # What write queue length does an incoming req see
system.mem_ctrl.wrQLenPdf::49                       0                       # What write queue length does an incoming req see
system.mem_ctrl.wrQLenPdf::50                       0                       # What write queue length does an incoming req see
system.mem_ctrl.wrQLenPdf::51                       0                       # What write queue length does an incoming req see
system.mem_ctrl.wrQLenPdf::52                       0                       # What write queue length does an incoming req see
system.mem_ctrl.wrQLenPdf::53                       0                       # What write queue length does an incoming req see
system.mem_ctrl.wrQLenPdf::54                       0                       # What write queue length does an incoming req see
system.mem_ctrl.wrQLenPdf::55                       0                       # What write queue length does an incoming req see
system.mem_ctrl.wrQLenPdf::56                       0                       # What write queue length does an incoming req see
system.mem_ctrl.wrQLenPdf::57                       0                       # What write queue length does an incoming req see
system.mem_ctrl.wrQLenPdf::58                       0                       # What write queue length does an incoming req see
system.mem_ctrl.wrQLenPdf::59                       0                       # What write queue length does an incoming req see
system.mem_ctrl.wrQLenPdf::60                       0                       # What write queue length does an incoming req see
system.mem_ctrl.wrQLenPdf::61                       0                       # What write queue length does an incoming req see
system.mem_ctrl.wrQLenPdf::62                       0                       # What write queue length does an incoming req see
system.mem_ctrl.wrQLenPdf::63                       0                       # What write queue length does an incoming req see
system.mem_ctrl.bytesPerActivate::samples        12610                       # Bytes accessed per row activation
system.mem_ctrl.bytesPerActivate::mean     601.300555                       # Bytes accessed per row activation
system.mem_ctrl.bytesPerActivate::gmean    364.410867                       # Bytes accessed per row activation
system.mem_ctrl.bytesPerActivate::stdev    427.253396                       # Bytes accessed per row activation
system.mem_ctrl.bytesPerActivate::0-127          3233     25.64%     25.64% # Bytes accessed per row activation
system.mem_ctrl.bytesPerActivate::128-255         1130      8.96%     34.60% # Bytes accessed per row activation
system.mem_ctrl.bytesPerActivate::256-383          426      3.38%     37.98% # Bytes accessed per row activation
system.mem_ctrl.bytesPerActivate::384-511          760      6.03%     44.00% # Bytes accessed per row activation
system.mem_ctrl.bytesPerActivate::512-639          352      2.79%     46.80% # Bytes accessed per row activation
system.mem_ctrl.bytesPerActivate::640-767          392      3.11%     49.90% # Bytes accessed per row activation
system.mem_ctrl.bytesPerActivate::768-895          369      2.93%     52.83% # Bytes accessed per row activation
system.mem_ctrl.bytesPerActivate::896-1023          405      3.21%     56.04% # Bytes accessed per row activation
system.mem_ctrl.bytesPerActivate::1024-1151         5543     43.96%    100.00% # Bytes accessed per row activation
system.mem_ctrl.bytesPerActivate::total         12610                       # Bytes accessed per row activation
system.mem_ctrl.rdPerTurnAround::samples         2480                       # Reads before turning the bus around for writes
system.mem_ctrl.rdPerTurnAround::mean       30.584677                       # Reads before turning the bus around for writes
system.mem_ctrl.rdPerTurnAround::gmean      17.294630                       # Reads before turning the bus around for writes
system.mem_ctrl.rdPerTurnAround::stdev     657.265601                       # Reads before turning the bus around for writes
system.mem_ctrl.rdPerTurnAround::0-1023          2479     99.96%     99.96% # Reads before turning the bus around for writes
system.mem_ctrl.rdPerTurnAround::31744-32767            1      0.04%    100.00% # Reads before turning the bus around for writes
system.mem_ctrl.rdPerTurnAround::total           2480                       # Reads before turning the bus around for writes
system.mem_ctrl.wrPerTurnAround::samples         2480                       # Writes before turning the bus around for reads
system.mem_ctrl.wrPerTurnAround::mean       17.191532                       # Writes before turning the bus around for reads
system.mem_ctrl.wrPerTurnAround::gmean      17.185091                       # Writes before turning the bus around for reads
system.mem_ctrl.wrPerTurnAround::stdev       0.472743                       # Writes before turning the bus around for reads
system.mem_ctrl.wrPerTurnAround::16                85      3.43%      3.43% # Writes before turning the bus around for reads
system.mem_ctrl.wrPerTurnAround::17              1835     73.99%     77.42% # Writes before turning the bus around for reads
system.mem_ctrl.wrPerTurnAround::18               560     22.58%    100.00% # Writes before turning the bus around for reads
system.mem_ctrl.wrPerTurnAround::total           2480                       # Writes before turning the bus around for reads
system.mem_ctrl.masterReadBytes::.cpu.inst        36672                       # Per-master bytes read from memory
system.mem_ctrl.masterReadBytes::.cpu.data      4818496                       # Per-master bytes read from memory
system.mem_ctrl.masterWriteBytes::.writebacks      2728640                       # Per-master bytes write to memory
system.mem_ctrl.masterReadRate::.cpu.inst 3271728.216023991816                       # Per-master bytes read from memory rate (Bytes/sec)
system.mem_ctrl.masterReadRate::.cpu.data 429886816.153979599476                       # Per-master bytes read from memory rate (Bytes/sec)
system.mem_ctrl.masterWriteRate::.writebacks 243438276.597177803516                       # Per-master bytes write to memory rate (Bytes/sec)
system.mem_ctrl.masterReadAccesses::.cpu.inst          573                       # Per-master read serviced memory accesses
system.mem_ctrl.masterReadAccesses::.cpu.data        75289                       # Per-master read serviced memory accesses
system.mem_ctrl.masterWriteAccesses::.writebacks        42664                       # Per-master write serviced memory accesses
system.mem_ctrl.masterReadTotalLat::.cpu.inst     22213000                       # Per-master read total memory access latency
system.mem_ctrl.masterReadTotalLat::.cpu.data   2563150750                       # Per-master read total memory access latency
system.mem_ctrl.masterWriteTotalLat::.writebacks 157259767500                       # Per-master write total memory access latency
system.mem_ctrl.masterReadAvgLat::.cpu.inst     38766.14                       # Per-master read average memory access latency
system.mem_ctrl.masterReadAvgLat::.cpu.data     34044.16                       # Per-master read average memory access latency
system.mem_ctrl.masterWriteAvgLat::.writebacks   3686006.18                       # Per-master write average memory access latency
system.mem_ctrl.totQLat                    1162951250                       # Total ticks spent queuing
system.mem_ctrl.totMemAccLat               2585363750                       # Total ticks spent from burst creation until serviced by the DRAM
system.mem_ctrl.totBusLat                   379310000                       # Total ticks spent in databus transfers
system.mem_ctrl.avgQLat                      15329.83                       # Average queueing delay per DRAM burst
system.mem_ctrl.avgBusLat                     5000.00                       # Average bus latency per DRAM burst
system.mem_ctrl.avgMemAccLat                 34079.83                       # Average memory access latency per DRAM burst
system.mem_ctrl.avgRdBW                        433.16                       # Average DRAM read bandwidth in MiByte/s
system.mem_ctrl.avgWrBW                        243.44                       # Average achieved write bandwidth in MiByte/s
system.mem_ctrl.avgRdBWSys                     433.16                       # Average system read bandwidth in MiByte/s
system.mem_ctrl.avgWrBWSys                     243.60                       # Average system write bandwidth in MiByte/s
system.mem_ctrl.peakBW                       12800.00                       # Theoretical peak bandwidth in MiByte/s
system.mem_ctrl.busUtil                          5.29                       # Data bus utilization in percentage
system.mem_ctrl.busUtilRead                      3.38                       # Data bus utilization in percentage for reads
system.mem_ctrl.busUtilWrite                     1.90                       # Data bus utilization in percentage for writes
system.mem_ctrl.avgRdQLen                        1.00                       # Average read queue length when enqueuing
system.mem_ctrl.avgWrQLen                       14.74                       # Average write queue length when enqueuing
system.mem_ctrl.readRowHits                     68234                       # Number of row buffer hits during reads
system.mem_ctrl.writeRowHits                    37648                       # Number of row buffer hits during writes
system.mem_ctrl.readRowHitRate                  89.94                       # Row buffer hit rate for reads
system.mem_ctrl.writeRowHitRate                 88.24                       # Row buffer hit rate for writes
system.mem_ctrl.avgGap                       94567.60                       # Average gap between requests
system.mem_ctrl.pageHitRate                     89.33                       # Row buffer hit rate, read and write combined
system.mem_ctrl_0.actEnergy                  44739240                       # Energy for activate commands per rank (pJ)
system.mem_ctrl_0.preEnergy                  23764290                       # Energy for precharge commands per rank (pJ)
system.mem_ctrl_0.readEnergy                271612740                       # Energy for read commands per rank (pJ)
system.mem_ctrl_0.writeEnergy               111953340                       # Energy for write commands per rank (pJ)
system.mem_ctrl_0.refreshEnergy          482492400.000000                       # Energy for refresh commands per rank (pJ)
system.mem_ctrl_0.actBackEnergy             678836940                       # Energy for active background per rank (pJ)
system.mem_ctrl_0.preBackEnergy              37169760                       # Energy for precharge background per rank (pJ)
system.mem_ctrl_0.actPowerDownEnergy       1842573450                       # Energy for active power-down per rank (pJ)
system.mem_ctrl_0.prePowerDownEnergy        192052320                       # Energy for precharge power-down per rank (pJ)
system.mem_ctrl_0.selfRefreshEnergy        1243525620                       # Energy for self refresh per rank (pJ)
system.mem_ctrl_0.totalEnergy              4929322350                       # Total energy per rank (pJ)
system.mem_ctrl_0.averagePower             439.774297                       # Core power per rank (mW)
system.mem_ctrl_0.totalIdleTime            9621972250                       # Total Idle time Per DRAM Rank
system.mem_ctrl_0.memoryStateTime::IDLE      23520500                       # Time in different power states
system.mem_ctrl_0.memoryStateTime::REF      204100000                       # Time in different power states
system.mem_ctrl_0.memoryStateTime::SREF    5081079750                       # Time in different power states
system.mem_ctrl_0.memoryStateTime::PRE_PDN    500186250                       # Time in different power states
system.mem_ctrl_0.memoryStateTime::ACT     1359113500                       # Time in different power states
system.mem_ctrl_0.memoryStateTime::ACT_PDN   4040755000                       # Time in different power states
system.mem_ctrl_1.actEnergy                  45331860                       # Energy for activate commands per rank (pJ)
system.mem_ctrl_1.preEnergy                  24090660                       # Energy for precharge commands per rank (pJ)
system.mem_ctrl_1.readEnergy                270041940                       # Energy for read commands per rank (pJ)
system.mem_ctrl_1.writeEnergy               110601360                       # Energy for write commands per rank (pJ)
system.mem_ctrl_1.refreshEnergy          474502080.000000                       # Energy for refresh commands per rank (pJ)
system.mem_ctrl_1.actBackEnergy             659957970                       # Energy for active background per rank (pJ)
system.mem_ctrl_1.preBackEnergy              37049760                       # Energy for precharge background per rank (pJ)
system.mem_ctrl_1.actPowerDownEnergy       1825842240                       # Energy for active power-down per rank (pJ)
system.mem_ctrl_1.prePowerDownEnergy        182046240                       # Energy for precharge power-down per rank (pJ)
system.mem_ctrl_1.selfRefreshEnergy        1266939900                       # Energy for self refresh per rank (pJ)
system.mem_ctrl_1.totalEnergy              4896686040                       # Total energy per rank (pJ)
system.mem_ctrl_1.averagePower             436.862617                       # Core power per rank (mW)
system.mem_ctrl_1.totalIdleTime            9664162750                       # Total Idle time Per DRAM Rank
system.mem_ctrl_1.memoryStateTime::IDLE      22841250                       # Time in different power states
system.mem_ctrl_1.memoryStateTime::REF      200720000                       # Time in different power states
system.mem_ctrl_1.memoryStateTime::SREF    5186254750                       # Time in different power states
system.mem_ctrl_1.memoryStateTime::PRE_PDN    474009250                       # Time in different power states
system.mem_ctrl_1.memoryStateTime::ACT     1320875250                       # Time in different power states
system.mem_ctrl_1.memoryStateTime::ACT_PDN   4004054500                       # Time in different power states
system.pwrStateResidencyTicks::UNDEFINED  11208755000                       # Cumulative time (in ticks) in various power states
system.cpu.branchPred.lookups                 1204896                       # Number of BP lookups
system.cpu.branchPred.condPredicted           1204896                       # Number of conditional branches predicted
system.cpu.branchPred.condIncorrect               952                       # Number of conditional branches incorrect
system.cpu.branchPred.BTBLookups              1204444                       # Number of BTB lookups
system.cpu.branchPred.BTBHits                       0                       # Number of BTB hits
system.cpu.branchPred.BTBCorrect                    0                       # Number of correct BTB predictions (this stat may not work properly.
system.cpu.branchPred.BTBHitPct              0.000000                       # BTB Hit Percentage
system.cpu.branchPred.usedRAS                     360                       # Number of times the RAS was used to get a target.
system.cpu.branchPred.RASInCorrect                154                       # Number of incorrect RAS predictions.
system.cpu.branchPred.indirectLookups         1204444                       # Number of indirect predictor lookups.
system.cpu.branchPred.indirectHits            1200701                       # Number of indirect target hits.
system.cpu.branchPred.indirectMisses             3743                       # Number of indirect misses.
system.cpu.branchPredindirectMispredicted          744                       # Number of mispredicted indirect branches.
system.cpu.dtb.walker.pwrStateResidencyTicks::UNDEFINED  11208755000                       # Cumulative time (in ticks) in various power states
system.cpu.dtb.rdAccesses                     6003224                       # TLB accesses on read requests
system.cpu.dtb.wrAccesses                     2402183                       # TLB accesses on write requests
system.cpu.dtb.rdMisses                           100                       # TLB misses on read requests
system.cpu.dtb.wrMisses                          1202                       # TLB misses on write requests
system.cpu.apic_clk_domain.clock                 8000                       # Clock period in ticks
system.cpu.interrupts.pwrStateResidencyTicks::UNDEFINED  11208755000                       # Cumulative time (in ticks) in various power states
system.cpu.itb.walker.pwrStateResidencyTicks::UNDEFINED  11208755000                       # Cumulative time (in ticks) in various power states
system.cpu.itb.rdAccesses                           0                       # TLB accesses on read requests
system.cpu.itb.wrAccesses                     2403347                       # TLB accesses on write requests
system.cpu.itb.rdMisses                             0                       # TLB misses on read requests
system.cpu.itb.wrMisses                           157                       # TLB misses on write requests
system.cpu.workload.numSyscalls                    13                       # Number of system calls
system.cpu.pwrStateResidencyTicks::ON     11208755000                       # Cumulative time (in ticks) in various power states
system.cpu.numCycles                         22417511                       # number of cpu cycles simulated
system.cpu.numWorkItemsStarted                      0                       # number of work items this cpu started
system.cpu.numWorkItemsCompleted                    0                       # number of work items this cpu completed
system.cpu.fetch.icacheStallCycles              38185                       # Number of cycles fetch is stalled on an Icache miss
system.cpu.fetch.Insts                       12023573                       # Number of instructions fetch has processed
system.cpu.fetch.Branches                     1204896                       # Number of branches that fetch encountered
system.cpu.fetch.predictedBranches            1201061                       # Number of branches that fetch has predicted taken
system.cpu.fetch.Cycles                      22343981                       # Number of cycles fetch has run and was not squashing or blocked
system.cpu.fetch.SquashCycles                    2162                       # Number of cycles fetch has spent squashing
system.cpu.fetch.TlbCycles                         70                       # Number of cycles fetch has spent waiting for tlb
system.cpu.fetch.MiscStallCycles                   85                       # Number of cycles fetch has spent waiting on interrupts, or bad addresses, or out of MSHRs
system.cpu.fetch.PendingTrapStallCycles           975                       # Number of stall cycles due to pending traps
system.cpu.fetch.PendingQuiesceStallCycles           20                       # Number of stall cycles due to pending quiesce instructions
system.cpu.fetch.CacheLines                   2403237                       # Number of cache lines fetched
system.cpu.fetch.IcacheSquashes                   355                       # Number of outstanding Icache misses that were squashed
system.cpu.fetch.ItlbSquashes                       1                       # Number of outstanding ITLB misses that were squashed
system.cpu.fetch.rateDist::samples           22384397                       # Number of instructions fetched each cycle (Total)
system.cpu.fetch.rateDist::mean              0.913385                       # Number of instructions fetched each cycle (Total)
system.cpu.fetch.rateDist::stdev             0.967850                       # Number of instructions fetched each cycle (Total)
system.cpu.fetch.rateDist::underflows               0      0.00%      0.00% # Number of instructions fetched each cycle (Total)
system.cpu.fetch.rateDist::0                 11537492     51.54%     51.54% # Number of instructions fetched each cycle (Total)
system.cpu.fetch.rateDist::1                  1248244      5.58%     57.12% # Number of instructions fetched each cycle (Total)
system.cpu.fetch.rateDist::2                  9598661     42.88%    100.00% # Number of instructions fetched each cycle (Total)
system.cpu.fetch.rateDist::overflows                0      0.00%    100.00% # Number of instructions fetched each cycle (Total)
system.cpu.fetch.rateDist::min_value                0                       # Number of instructions fetched each cycle (Total)
system.cpu.fetch.rateDist::max_value                2                       # Number of instructions fetched each cycle (Total)
system.cpu.fetch.rateDist::total             22384397                       # Number of instructions fetched each cycle (Total)
system.cpu.fetch.branchRate                  0.053748                       # Number of branch fetches per cycle
system.cpu.fetch.rate                        0.536347                       # Number of inst fetches per cycle
system.cpu.decode.IdleCycles                   937867                       # Number of cycles decode is idle
system.cpu.decode.BlockedCycles              11224004                       # Number of cycles decode is blocked
system.cpu.decode.RunCycles                   8997550                       # Number of cycles decode is running
system.cpu.decode.UnblockCycles               1223895                       # Number of cycles decode is unblocking
system.cpu.decode.SquashCycles                   1081                       # Number of cycles decode is squashing
system.cpu.decode.DecodedInsts               20439560                       # Number of instructions handled by decode
system.cpu.decode.SquashedInsts                  2153                       # Number of squashed instructions handled by decode
system.cpu.rename.SquashCycles                   1081                       # Number of cycles rename is squashing
system.cpu.rename.IdleCycles                  1586814                       # Number of cycles rename is idle
system.cpu.rename.BlockCycles                   28728                       # Number of cycles rename is blocking
system.cpu.rename.serializeStallCycles           1196                       # count of cycles rename stalled for serializing inst
system.cpu.rename.RunCycles                   9572455                       # Number of cycles rename is running
system.cpu.rename.UnblockCycles              11194123                       # Number of cycles rename is unblocking
system.cpu.rename.RenamedInsts               20437019                       # Number of instructions processed by rename
system.cpu.rename.SquashedInsts                  1098                       # Number of squashed instructions processed by rename
system.cpu.rename.ROBFullEvents                    32                       # Number of times rename has blocked due to ROB full
system.cpu.rename.IQFullEvents                 248556                       # Number of times rename has blocked due to IQ full
system.cpu.rename.LQFullEvents                      7                       # Number of times rename has blocked due to LQ full
system.cpu.rename.SQFullEvents               10298468                       # Number of times rename has blocked due to SQ full
system.cpu.rename.FullRegisterEvents               15                       # Number of times there has been no free registers
system.cpu.rename.RenamedOperands            24040612                       # Number of destination operands rename has renamed
system.cpu.rename.RenameLookups              50491443                       # Number of register rename lookups that rename has made
system.cpu.rename.int_rename_lookups         33651839                       # Number of integer rename lookups
system.cpu.rename.fp_rename_lookups              4069                       # Number of floating rename lookups
system.cpu.rename.CommittedMaps              24022692                       # Number of HB maps that are committed
system.cpu.rename.UndoneMaps                    17920                       # Number of HB maps that are undone due to squashing
system.cpu.rename.serializingInsts                 27                       # count of serializing insts renamed
system.cpu.rename.tempSerializingInsts             24                       # count of temporary serializing insts renamed
system.cpu.rename.skidInsts                   1641521                       # count of insts added to the skid buffer
system.cpu.memDep0.insertedLoads              6004090                       # Number of loads inserted to the mem dependence unit.
system.cpu.memDep0.insertedStores             2402846                       # Number of stores inserted to the mem dependence unit.
system.cpu.memDep0.conflictingLoads           4195369                       # Number of conflicting loads.
system.cpu.memDep0.conflictingStores           848427                       # Number of conflicting stores.
system.cpu.iq.iqInstsAdded                   20434361                       # Number of instructions added to the IQ (excludes non-spec)
system.cpu.iq.iqNonSpecInstsAdded                  96                       # Number of non-speculative instructions added to the IQ
system.cpu.iq.iqInstsIssued                  20430222                       # Number of instructions issued
system.cpu.iq.iqSquashedInstsIssued               544                       # Number of squashed instructions issued
system.cpu.iq.iqSquashedInstsExamined           13757                       # Number of squashed instructions iterated over during squash; mainly for profiling
system.cpu.iq.iqSquashedOperandsExamined        17992                       # Number of squashed operands that are examined and possibly removed from graph
system.cpu.iq.iqSquashedNonSpecRemoved             65                       # Number of squashed non-spec instructions that were removed
system.cpu.iq.issued_per_cycle::samples      22384397                       # Number of insts issued each cycle
system.cpu.iq.issued_per_cycle::mean         0.912699                       # Number of insts issued each cycle
system.cpu.iq.issued_per_cycle::stdev        0.865300                       # Number of insts issued each cycle
system.cpu.iq.issued_per_cycle::underflows            0      0.00%      0.00% # Number of insts issued each cycle
system.cpu.iq.issued_per_cycle::0             9442483     42.18%     42.18% # Number of insts issued each cycle
system.cpu.iq.issued_per_cycle::1             5453606     24.36%     66.55% # Number of insts issued each cycle
system.cpu.iq.issued_per_cycle::2             7488308     33.45%    100.00% # Number of insts issued each cycle
system.cpu.iq.issued_per_cycle::overflows            0      0.00%    100.00% # Number of insts issued each cycle
system.cpu.iq.issued_per_cycle::min_value            0                       # Number of insts issued each cycle
system.cpu.iq.issued_per_cycle::max_value            2                       # Number of insts issued each cycle
system.cpu.iq.issued_per_cycle::total        22384397                       # Number of insts issued each cycle
system.cpu.iq.fu_full::No_OpClass                   0      0.00%      0.00% # attempts to use FU when none available
system.cpu.iq.fu_full::IntAlu                       0      0.00%      0.00% # attempts to use FU when none available
system.cpu.iq.fu_full::IntMult                      0      0.00%      0.00% # attempts to use FU when none available
system.cpu.iq.fu_full::IntDiv                       0      0.00%      0.00% # attempts to use FU when none available
system.cpu.iq.fu_full::FloatAdd                     0      0.00%      0.00% # attempts to use FU when none available
system.cpu.iq.fu_full::FloatCmp                     0      0.00%      0.00% # attempts to use FU when none available
system.cpu.iq.fu_full::FloatCvt                     0      0.00%      0.00% # attempts to use FU when none available
system.cpu.iq.fu_full::FloatMult                    0      0.00%      0.00% # attempts to use FU when none available
system.cpu.iq.fu_full::FloatMultAcc                 0      0.00%      0.00% # attempts to use FU when none available
system.cpu.iq.fu_full::FloatDiv                     0      0.00%      0.00% # attempts to use FU when none available
system.cpu.iq.fu_full::FloatMisc                    0      0.00%      0.00% # attempts to use FU when none available
system.cpu.iq.fu_full::FloatSqrt                    0      0.00%      0.00% # attempts to use FU when none available
system.cpu.iq.fu_full::SimdAdd                    248      0.01%      0.01% # attempts to use FU when none available
system.cpu.iq.fu_full::SimdAddAcc                   0      0.00%      0.01% # attempts to use FU when none available
system.cpu.iq.fu_full::SimdAlu                     55      0.00%      0.01% # attempts to use FU when none available
system.cpu.iq.fu_full::SimdCmp                      0      0.00%      0.01% # attempts to use FU when none available
system.cpu.iq.fu_full::SimdCvt                     35      0.00%      0.01% # attempts to use FU when none available
system.cpu.iq.fu_full::SimdMisc                   123      0.00%      0.01% # attempts to use FU when none available
system.cpu.iq.fu_full::SimdMult                     0      0.00%      0.01% # attempts to use FU when none available
system.cpu.iq.fu_full::SimdMultAcc                  0      0.00%      0.01% # attempts to use FU when none available
system.cpu.iq.fu_full::SimdShift                  124      0.00%      0.02% # attempts to use FU when none available
system.cpu.iq.fu_full::SimdShiftAcc                 0      0.00%      0.02% # attempts to use FU when none available
system.cpu.iq.fu_full::SimdSqrt                     0      0.00%      0.02% # attempts to use FU when none available
system.cpu.iq.fu_full::SimdFloatAdd                 0      0.00%      0.02% # attempts to use FU when none available
system.cpu.iq.fu_full::SimdFloatAlu                 0      0.00%      0.02% # attempts to use FU when none available
system.cpu.iq.fu_full::SimdFloatCmp                 0      0.00%      0.02% # attempts to use FU when none available
system.cpu.iq.fu_full::SimdFloatCvt                 0      0.00%      0.02% # attempts to use FU when none available
system.cpu.iq.fu_full::SimdFloatDiv                 0      0.00%      0.02% # attempts to use FU when none available
system.cpu.iq.fu_full::SimdFloatMisc                0      0.00%      0.02% # attempts to use FU when none available
system.cpu.iq.fu_full::SimdFloatMult                0      0.00%      0.02% # attempts to use FU when none available
system.cpu.iq.fu_full::SimdFloatMultAcc             0      0.00%      0.02% # attempts to use FU when none available
system.cpu.iq.fu_full::SimdFloatSqrt                0      0.00%      0.02% # attempts to use FU when none available
system.cpu.iq.fu_full::SimdAes                      0      0.00%      0.02% # attempts to use FU when none available
system.cpu.iq.fu_full::SimdAesMix                   0      0.00%      0.02% # attempts to use FU when none available
system.cpu.iq.fu_full::SimdSha1Hash                 0      0.00%      0.02% # attempts to use FU when none available
system.cpu.iq.fu_full::SimdSha1Hash2                0      0.00%      0.02% # attempts to use FU when none available
system.cpu.iq.fu_full::SimdSha256Hash               0      0.00%      0.02% # attempts to use FU when none available
system.cpu.iq.fu_full::SimdSha256Hash2              0      0.00%      0.02% # attempts to use FU when none available
system.cpu.iq.fu_full::SimdShaSigma2                0      0.00%      0.02% # attempts to use FU when none available
system.cpu.iq.fu_full::SimdShaSigma3                0      0.00%      0.02% # attempts to use FU when none available
system.cpu.iq.fu_full::MemRead                3769178     99.98%    100.00% # attempts to use FU when none available
system.cpu.iq.fu_full::MemWrite                   172      0.00%    100.00% # attempts to use FU when none available
system.cpu.iq.fu_full::FloatMemRead                 0      0.00%    100.00% # attempts to use FU when none available
system.cpu.iq.fu_full::FloatMemWrite                0      0.00%    100.00% # attempts to use FU when none available
system.cpu.iq.fu_full::IprAccess                    0      0.00%    100.00% # attempts to use FU when none available
system.cpu.iq.fu_full::InstPrefetch                 0      0.00%    100.00% # attempts to use FU when none available
system.cpu.iq.FU_type_0::No_OpClass               358      0.00%      0.00% # Type of FU issued
system.cpu.iq.FU_type_0::IntAlu              12022904     58.85%     58.85% # Type of FU issued
system.cpu.iq.FU_type_0::IntMult                   11      0.00%     58.85% # Type of FU issued
system.cpu.iq.FU_type_0::IntDiv                    31      0.00%     58.85% # Type of FU issued
system.cpu.iq.FU_type_0::FloatAdd                  13      0.00%     58.85% # Type of FU issued
system.cpu.iq.FU_type_0::FloatCmp                   0      0.00%     58.85% # Type of FU issued
system.cpu.iq.FU_type_0::FloatCvt                   0      0.00%     58.85% # Type of FU issued
system.cpu.iq.FU_type_0::FloatMult                  0      0.00%     58.85% # Type of FU issued
system.cpu.iq.FU_type_0::FloatMultAcc               0      0.00%     58.85% # Type of FU issued
system.cpu.iq.FU_type_0::FloatDiv                   0      0.00%     58.85% # Type of FU issued
system.cpu.iq.FU_type_0::FloatMisc                  0      0.00%     58.85% # Type of FU issued
system.cpu.iq.FU_type_0::FloatSqrt                  0      0.00%     58.85% # Type of FU issued
system.cpu.iq.FU_type_0::SimdAdd                  375      0.00%     58.85% # Type of FU issued
system.cpu.iq.FU_type_0::SimdAddAcc                 0      0.00%     58.85% # Type of FU issued
system.cpu.iq.FU_type_0::SimdAlu                   88      0.00%     58.85% # Type of FU issued
system.cpu.iq.FU_type_0::SimdCmp                    0      0.00%     58.85% # Type of FU issued
system.cpu.iq.FU_type_0::SimdCvt                  136      0.00%     58.85% # Type of FU issued
system.cpu.iq.FU_type_0::SimdMisc                 240      0.00%     58.85% # Type of FU issued
system.cpu.iq.FU_type_0::SimdMult                   0      0.00%     58.85% # Type of FU issued
system.cpu.iq.FU_type_0::SimdMultAcc                0      0.00%     58.85% # Type of FU issued
system.cpu.iq.FU_type_0::SimdShift                186      0.00%     58.86% # Type of FU issued
system.cpu.iq.FU_type_0::SimdShiftAcc               0      0.00%     58.86% # Type of FU issued
system.cpu.iq.FU_type_0::SimdSqrt                   0      0.00%     58.86% # Type of FU issued
system.cpu.iq.FU_type_0::SimdFloatAdd               0      0.00%     58.86% # Type of FU issued
system.cpu.iq.FU_type_0::SimdFloatAlu               0      0.00%     58.86% # Type of FU issued
system.cpu.iq.FU_type_0::SimdFloatCmp               0      0.00%     58.86% # Type of FU issued
system.cpu.iq.FU_type_0::SimdFloatCvt               0      0.00%     58.86% # Type of FU issued
system.cpu.iq.FU_type_0::SimdFloatDiv               0      0.00%     58.86% # Type of FU issued
system.cpu.iq.FU_type_0::SimdFloatMisc              0      0.00%     58.86% # Type of FU issued
system.cpu.iq.FU_type_0::SimdFloatMult              0      0.00%     58.86% # Type of FU issued
system.cpu.iq.FU_type_0::SimdFloatMultAcc            0      0.00%     58.86% # Type of FU issued
system.cpu.iq.FU_type_0::SimdFloatSqrt              0      0.00%     58.86% # Type of FU issued
system.cpu.iq.FU_type_0::SimdAes                    0      0.00%     58.86% # Type of FU issued
system.cpu.iq.FU_type_0::SimdAesMix                 0      0.00%     58.86% # Type of FU issued
system.cpu.iq.FU_type_0::SimdSha1Hash               0      0.00%     58.86% # Type of FU issued
system.cpu.iq.FU_type_0::SimdSha1Hash2              0      0.00%     58.86% # Type of FU issued
system.cpu.iq.FU_type_0::SimdSha256Hash             0      0.00%     58.86% # Type of FU issued
system.cpu.iq.FU_type_0::SimdSha256Hash2            0      0.00%     58.86% # Type of FU issued
system.cpu.iq.FU_type_0::SimdShaSigma2              0      0.00%     58.86% # Type of FU issued
system.cpu.iq.FU_type_0::SimdShaSigma3              0      0.00%     58.86% # Type of FU issued
system.cpu.iq.FU_type_0::MemRead              6003450     29.39%     88.24% # Type of FU issued
system.cpu.iq.FU_type_0::MemWrite             2401897     11.76%    100.00% # Type of FU issued
system.cpu.iq.FU_type_0::FloatMemRead              91      0.00%    100.00% # Type of FU issued
system.cpu.iq.FU_type_0::FloatMemWrite            442      0.00%    100.00% # Type of FU issued
system.cpu.iq.FU_type_0::IprAccess                  0      0.00%    100.00% # Type of FU issued
system.cpu.iq.FU_type_0::InstPrefetch               0      0.00%    100.00% # Type of FU issued
system.cpu.iq.FU_type_0::total               20430222                       # Type of FU issued
system.cpu.iq.rate                           0.911351                       # Inst issue rate
system.cpu.iq.fu_busy_cnt                     3769935                       # FU busy when requested
system.cpu.iq.fu_busy_rate                   0.184527                       # FU busy rate (busy events/executed inst)
system.cpu.iq.int_inst_queue_reads           67010536                       # Number of integer instruction queue reads
system.cpu.iq.int_inst_queue_writes          20446027                       # Number of integer instruction queue writes
system.cpu.iq.int_inst_queue_wakeup_accesses     20425255                       # Number of integer instruction queue wakeup accesses
system.cpu.iq.fp_inst_queue_reads                4784                       # Number of floating instruction queue reads
system.cpu.iq.fp_inst_queue_writes               2239                       # Number of floating instruction queue writes
system.cpu.iq.fp_inst_queue_wakeup_accesses         2071                       # Number of floating instruction queue wakeup accesses
system.cpu.iq.vec_inst_queue_reads                  0                       # Number of vector instruction queue reads
system.cpu.iq.vec_inst_queue_writes                 0                       # Number of vector instruction queue writes
system.cpu.iq.vec_inst_queue_wakeup_accesses            0                       # Number of vector instruction queue wakeup accesses
system.cpu.iq.int_alu_accesses               24197115                       # Number of integer alu accesses
system.cpu.iq.fp_alu_accesses                    2684                       # Number of floating point alu accesses
system.cpu.iq.vec_alu_accesses                      0                       # Number of vector alu accesses
system.cpu.iew.lsq.thread0.forwLoads          4800133                       # Number of loads that had data forwarded from stores
system.cpu.iew.lsq.thread0.invAddrLoads             0                       # Number of loads ignored due to an invalid address
system.cpu.iew.lsq.thread0.squashedLoads         1798                       # Number of loads squashed
system.cpu.iew.lsq.thread0.ignoredResponses           10                       # Number of memory responses ignored because the instruction is squashed
system.cpu.iew.lsq.thread0.memOrderViolation           52                       # Number of memory ordering violations
system.cpu.iew.lsq.thread0.squashedStores         1010                       # Number of stores squashed
system.cpu.iew.lsq.thread0.invAddrSwpfs             0                       # Number of software prefetches ignored due to an invalid address
system.cpu.iew.lsq.thread0.blockedLoads             0                       # Number of blocked loads due to partial load-store forwarding
system.cpu.iew.lsq.thread0.rescheduledLoads            1                       # Number of loads that were rescheduled
system.cpu.iew.lsq.thread0.cacheBlocked             0                       # Number of times an access to memory failed due to the cache being blocked
system.cpu.iew.iewIdleCycles                        0                       # Number of cycles IEW is idle
system.cpu.iew.iewSquashCycles                   1081                       # Number of cycles IEW is squashing
system.cpu.iew.iewBlockCycles                    1914                       # Number of cycles IEW is blocking
system.cpu.iew.iewUnblockCycles                  1354                       # Number of cycles IEW is unblocking
system.cpu.iew.iewDispatchedInsts            20434457                       # Number of instructions dispatched to IQ
system.cpu.iew.iewDispSquashedInsts               911                       # Number of squashed instructions skipped by dispatch
system.cpu.iew.iewDispLoadInsts               6004090                       # Number of dispatched load instructions
system.cpu.iew.iewDispStoreInsts              2402846                       # Number of dispatched store instructions
system.cpu.iew.iewDispNonSpecInsts                 45                       # Number of dispatched non-speculative instructions
system.cpu.iew.iewIQFullEvents                     22                       # Number of times the IQ has become full, causing a stall
system.cpu.iew.iewLSQFullEvents                  1313                       # Number of times the LSQ has become full, causing a stall
system.cpu.iew.memOrderViolationEvents             52                       # Number of memory order violations
system.cpu.iew.predictedTakenIncorrect            188                       # Number of branches that were predicted taken incorrectly
system.cpu.iew.predictedNotTakenIncorrect          980                       # Number of branches that were predicted not taken incorrectly
system.cpu.iew.branchMispredicts                 1168                       # Number of branch mispredicts detected at execute
system.cpu.iew.iewExecutedInsts              20427946                       # Number of executed instructions
system.cpu.iew.iewExecLoadInsts               6003218                       # Number of load instructions executed
system.cpu.iew.iewExecSquashedInsts              2276                       # Number of squashed instructions skipped in execute
system.cpu.iew.exec_swp                             0                       # number of swp insts executed
system.cpu.iew.exec_nop                             0                       # number of nop insts executed
system.cpu.iew.exec_refs                      8405400                       # number of memory reference insts executed
system.cpu.iew.exec_branches                  1202611                       # Number of branches executed
system.cpu.iew.exec_stores                    2402182                       # Number of stores executed
system.cpu.iew.exec_rate                     0.911250                       # Inst execution rate
system.cpu.iew.wb_sent                       20427645                       # cumulative count of insts sent to commit
system.cpu.iew.wb_count                      20427326                       # cumulative count of insts written-back
system.cpu.iew.wb_producers                  16495541                       # num instructions producing a value
system.cpu.iew.wb_consumers                  18755172                       # num instructions consuming a value
system.cpu.iew.wb_rate                       0.911222                       # insts written-back per cycle
system.cpu.iew.wb_fanout                     0.879520                       # average fanout of values written-back
system.cpu.commit.commitSquashedInsts           12423                       # The number of squashed insts skipped by commit
system.cpu.commit.commitNonSpecStalls              31                       # The number of times commit has been forced to stall to communicate backwards
system.cpu.commit.branchMispredicts              1031                       # The number of times a branch was mispredicted
system.cpu.commit.committed_per_cycle::samples     22382972                       # Number of insts commited each cycle
system.cpu.commit.committed_per_cycle::mean     0.912332                       # Number of insts commited each cycle
system.cpu.commit.committed_per_cycle::stdev     0.920666                       # Number of insts commited each cycle
system.cpu.commit.committed_per_cycle::underflows            0      0.00%      0.00% # Number of insts commited each cycle
system.cpu.commit.committed_per_cycle::0     10553334     47.15%     47.15% # Number of insts commited each cycle
system.cpu.commit.committed_per_cycle::1      3238577     14.47%     61.62% # Number of insts commited each cycle
system.cpu.commit.committed_per_cycle::2      8591061     38.38%    100.00% # Number of insts commited each cycle
system.cpu.commit.committed_per_cycle::overflows            0      0.00%    100.00% # Number of insts commited each cycle
system.cpu.commit.committed_per_cycle::min_value            0                       # Number of insts commited each cycle
system.cpu.commit.committed_per_cycle::max_value            2                       # Number of insts commited each cycle
system.cpu.commit.committed_per_cycle::total     22382972                       # Number of insts commited each cycle
system.cpu.commit.committedInsts             12010628                       # Number of instructions committed
system.cpu.commit.committedOps               20420699                       # Number of ops (including micro ops) committed
system.cpu.commit.swp_count                         0                       # Number of s/w prefetches committed
system.cpu.commit.refs                        8404128                       # Number of memory references committed
system.cpu.commit.loads                       6002292                       # Number of loads committed
system.cpu.commit.membars                          12                       # Number of memory barriers committed
system.cpu.commit.branches                    1202191                       # Number of branches committed
system.cpu.commit.vec_insts                         0                       # Number of committed Vector instructions.
system.cpu.commit.fp_insts                       2027                       # Number of committed floating point instructions.
system.cpu.commit.int_insts                  20419098                       # Number of committed integer instructions.
system.cpu.commit.function_calls                  190                       # Number of function calls committed.
system.cpu.commit.op_class_0::No_OpClass          108      0.00%      0.00% # Class of committed instruction
system.cpu.commit.op_class_0::IntAlu         12015404     58.84%     58.84% # Class of committed instruction
system.cpu.commit.op_class_0::IntMult              11      0.00%     58.84% # Class of committed instruction
system.cpu.commit.op_class_0::IntDiv               28      0.00%     58.84% # Class of committed instruction
system.cpu.commit.op_class_0::FloatAdd             12      0.00%     58.84% # Class of committed instruction
system.cpu.commit.op_class_0::FloatCmp              0      0.00%     58.84% # Class of committed instruction
system.cpu.commit.op_class_0::FloatCvt              0      0.00%     58.84% # Class of committed instruction
system.cpu.commit.op_class_0::FloatMult             0      0.00%     58.84% # Class of committed instruction
system.cpu.commit.op_class_0::FloatMultAcc            0      0.00%     58.84% # Class of committed instruction
system.cpu.commit.op_class_0::FloatDiv              0      0.00%     58.84% # Class of committed instruction
system.cpu.commit.op_class_0::FloatMisc             0      0.00%     58.84% # Class of committed instruction
system.cpu.commit.op_class_0::FloatSqrt             0      0.00%     58.84% # Class of committed instruction
system.cpu.commit.op_class_0::SimdAdd             374      0.00%     58.84% # Class of committed instruction
system.cpu.commit.op_class_0::SimdAddAcc            0      0.00%     58.84% # Class of committed instruction
system.cpu.commit.op_class_0::SimdAlu              82      0.00%     58.84% # Class of committed instruction
system.cpu.commit.op_class_0::SimdCmp               0      0.00%     58.84% # Class of committed instruction
system.cpu.commit.op_class_0::SimdCvt             128      0.00%     58.84% # Class of committed instruction
system.cpu.commit.op_class_0::SimdMisc            238      0.00%     58.84% # Class of committed instruction
system.cpu.commit.op_class_0::SimdMult              0      0.00%     58.84% # Class of committed instruction
system.cpu.commit.op_class_0::SimdMultAcc            0      0.00%     58.84% # Class of committed instruction
system.cpu.commit.op_class_0::SimdShift           186      0.00%     58.85% # Class of committed instruction
system.cpu.commit.op_class_0::SimdShiftAcc            0      0.00%     58.85% # Class of committed instruction
system.cpu.commit.op_class_0::SimdSqrt              0      0.00%     58.85% # Class of committed instruction
system.cpu.commit.op_class_0::SimdFloatAdd            0      0.00%     58.85% # Class of committed instruction
system.cpu.commit.op_class_0::SimdFloatAlu            0      0.00%     58.85% # Class of committed instruction
system.cpu.commit.op_class_0::SimdFloatCmp            0      0.00%     58.85% # Class of committed instruction
system.cpu.commit.op_class_0::SimdFloatCvt            0      0.00%     58.85% # Class of committed instruction
system.cpu.commit.op_class_0::SimdFloatDiv            0      0.00%     58.85% # Class of committed instruction
system.cpu.commit.op_class_0::SimdFloatMisc            0      0.00%     58.85% # Class of committed instruction
system.cpu.commit.op_class_0::SimdFloatMult            0      0.00%     58.85% # Class of committed instruction
system.cpu.commit.op_class_0::SimdFloatMultAcc            0      0.00%     58.85% # Class of committed instruction
system.cpu.commit.op_class_0::SimdFloatSqrt            0      0.00%     58.85% # Class of committed instruction
system.cpu.commit.op_class_0::SimdAes               0      0.00%     58.85% # Class of committed instruction
system.cpu.commit.op_class_0::SimdAesMix            0      0.00%     58.85% # Class of committed instruction
system.cpu.commit.op_class_0::SimdSha1Hash            0      0.00%     58.85% # Class of committed instruction
system.cpu.commit.op_class_0::SimdSha1Hash2            0      0.00%     58.85% # Class of committed instruction
system.cpu.commit.op_class_0::SimdSha256Hash            0      0.00%     58.85% # Class of committed instruction
system.cpu.commit.op_class_0::SimdSha256Hash2            0      0.00%     58.85% # Class of committed instruction
system.cpu.commit.op_class_0::SimdShaSigma2            0      0.00%     58.85% # Class of committed instruction
system.cpu.commit.op_class_0::SimdShaSigma3            0      0.00%     58.85% # Class of committed instruction
system.cpu.commit.op_class_0::MemRead         6002224     29.39%     88.24% # Class of committed instruction
system.cpu.commit.op_class_0::MemWrite        2401419     11.76%    100.00% # Class of committed instruction
system.cpu.commit.op_class_0::FloatMemRead           68      0.00%    100.00% # Class of committed instruction
system.cpu.commit.op_class_0::FloatMemWrite          417      0.00%    100.00% # Class of committed instruction
system.cpu.commit.op_class_0::IprAccess             0      0.00%    100.00% # Class of committed instruction
system.cpu.commit.op_class_0::InstPrefetch            0      0.00%    100.00% # Class of committed instruction
system.cpu.commit.op_class_0::total          20420699                       # Class of committed instruction
system.cpu.commit.bw_lim_events               8591061                       # number cycles where commit BW limit reached
system.cpu.rob.rob_reads                     34225033                       # The number of ROB reads
system.cpu.rob.rob_writes                    40867672                       # The number of ROB writes
system.cpu.timesIdled                             338                       # Number of times that the entire CPU went into an idle state and unscheduled itself
system.cpu.idleCycles                           33114                       # Total number of cycles that the CPU has spent unscheduled due to idling
system.cpu.committedInsts                    12010628                       # Number of Instructions Simulated
system.cpu.committedOps                      20420699                       # Number of Ops (including micro ops) Simulated
system.cpu.cpi                               1.866473                       # CPI: Cycles Per Instruction
system.cpu.cpi_total                         1.866473                       # CPI: Total CPI of All Threads
system.cpu.ipc                               0.535770                       # IPC: Instructions Per Cycle
system.cpu.ipc_total                         0.535770                       # IPC: Total IPC of All Threads
system.cpu.int_regfile_reads                 33636682                       # number of integer regfile reads
system.cpu.int_regfile_writes                16820935                       # number of integer regfile writes
system.cpu.fp_regfile_reads                      3975                       # number of floating regfile reads
system.cpu.fp_regfile_writes                     1574                       # number of floating regfile writes
system.cpu.cc_regfile_reads                   6012627                       # number of cc regfile reads
system.cpu.cc_regfile_writes                  7207553                       # number of cc regfile writes
system.cpu.misc_regfile_reads                10811902                       # number of misc regfile reads
system.cpu.dcache.tags.pwrStateResidencyTicks::UNDEFINED  11208755000                       # Cumulative time (in ticks) in various power states
system.cpu.dcache.tags.tagsinuse           255.524551                       # Cycle average of tags in use
system.cpu.dcache.tags.total_refs             3604706                       # Total number of references to valid blocks.
system.cpu.dcache.tags.sampled_refs             75299                       # Sample count of references to valid blocks.
system.cpu.dcache.tags.avg_refs             47.871897                       # Average number of references to valid blocks.
system.cpu.dcache.tags.warmup_cycle            170000                       # Cycle when the warmup percentage was hit.
system.cpu.dcache.tags.occ_blocks::.cpu.data   255.524551                       # Average occupied blocks per requestor
system.cpu.dcache.tags.occ_percent::.cpu.data     0.998143                       # Average percentage of cache occupancy
system.cpu.dcache.tags.occ_percent::total     0.998143                       # Average percentage of cache occupancy
system.cpu.dcache.tags.occ_task_id_blocks::1024          256                       # Occupied blocks per task id
system.cpu.dcache.tags.age_task_id_blocks_1024::0           30                       # Occupied blocks per task id
system.cpu.dcache.tags.age_task_id_blocks_1024::1          225                       # Occupied blocks per task id
system.cpu.dcache.tags.age_task_id_blocks_1024::4            1                       # Occupied blocks per task id
system.cpu.dcache.tags.occ_task_id_percent::1024            1                       # Percentage of cache occupancy per task id
system.cpu.dcache.tags.tag_accesses          28914163                       # Number of tag accesses
system.cpu.dcache.tags.data_accesses         28914163                       # Number of data accesses
system.cpu.dcache.pwrStateResidencyTicks::UNDEFINED  11208755000                       # Cumulative time (in ticks) in various power states
system.cpu.dcache.ReadReq_hits::.cpu.data      1202705                       # number of ReadReq hits
system.cpu.dcache.ReadReq_hits::total         1202705                       # number of ReadReq hits
system.cpu.dcache.WriteReq_hits::.cpu.data      2326702                       # number of WriteReq hits
system.cpu.dcache.WriteReq_hits::total        2326702                       # number of WriteReq hits
system.cpu.dcache.demand_hits::.cpu.data      3529407                       # number of demand (read+write) hits
system.cpu.dcache.demand_hits::total          3529407                       # number of demand (read+write) hits
system.cpu.dcache.overall_hits::.cpu.data      3529407                       # number of overall hits
system.cpu.dcache.overall_hits::total         3529407                       # number of overall hits
system.cpu.dcache.ReadReq_misses::.cpu.data          317                       # number of ReadReq misses
system.cpu.dcache.ReadReq_misses::total           317                       # number of ReadReq misses
system.cpu.dcache.WriteReq_misses::.cpu.data        75134                       # number of WriteReq misses
system.cpu.dcache.WriteReq_misses::total        75134                       # number of WriteReq misses
system.cpu.dcache.demand_misses::.cpu.data        75451                       # number of demand (read+write) misses
system.cpu.dcache.demand_misses::total          75451                       # number of demand (read+write) misses
[...]
system.l3cache.tags.occ_blocks::.cpu.data 25827.147872                       # Average occupied blocks per requestor
system.l3cache.tags.occ_percent::.cpu.inst     0.004529                       # Average percentage of cache occupancy
system.l3cache.tags.occ_percent::.cpu.data     0.788182                       # Average percentage of cache occupancy
system.l3cache.tags.occ_percent::total       0.792711                       # Average percentage of cache occupancy
system.l3cache.tags.occ_task_id_blocks::1024        32768                       # Occupied blocks per task id
system.l3cache.tags.age_task_id_blocks_1024::0          154                       # Occupied blocks per task id
system.l3cache.tags.age_task_id_blocks_1024::1          676                       # Occupied blocks per task id
system.l3cache.tags.age_task_id_blocks_1024::2         5938                       # Occupied blocks per task id
system.l3cache.tags.age_task_id_blocks_1024::3        26000                       # Occupied blocks per task id
system.l3cache.tags.occ_task_id_percent::1024            1                       # Percentage of cache occupancy per task id
system.l3cache.tags.tag_accesses              2431126                       # Number of tag accesses
system.l3cache.tags.data_accesses             2431126                       # Number of data accesses
system.l3cache.pwrStateResidencyTicks::UNDEFINED  11208755000                       # Cumulative time (in ticks) in various power states
system.l3cache.WritebackDirty_hits::.writebacks        71339                       # number of WritebackDirty hits
system.l3cache.WritebackDirty_hits::total        71339                       # number of WritebackDirty hits
system.l3cache.ReadSharedReq_hits::.cpu.data            3                       # number of ReadSharedReq hits
system.l3cache.ReadSharedReq_hits::total            3                       # number of ReadSharedReq hits
system.l3cache.demand_hits::.cpu.data               3                       # number of demand (read+write) hits
system.l3cache.demand_hits::total                   3                       # number of demand (read+write) hits
system.l3cache.overall_hits::.cpu.data              3                       # number of overall hits
system.l3cache.overall_hits::total                  3                       # number of overall hits
system.l3cache.ReadExReq_misses::.cpu.data        75130                       # number of ReadExReq misses
system.l3cache.ReadExReq_misses::total          75130                       # number of ReadExReq misses
system.l3cache.ReadSharedReq_misses::.cpu.inst          573                       # number of ReadSharedReq misses
system.l3cache.ReadSharedReq_misses::.cpu.data          159                       # number of ReadSharedReq misses
system.l3cache.ReadSharedReq_misses::total          732                       # number of ReadSharedReq misses
system.l3cache.demand_misses::.cpu.inst           573                       # number of demand (read+write) misses
system.l3cache.demand_misses::.cpu.data         75289                       # number of demand (read+write) misses
system.l3cache.demand_misses::total             75862                       # number of demand (read+write) misses
system.l3cache.overall_misses::.cpu.inst          573                       # number of overall misses
system.l3cache.overall_misses::.cpu.data        75289                       # number of overall misses
system.l3cache.overall_misses::total            75862                       # number of overall misses
system.l3cache.ReadExReq_miss_latency::.cpu.data   5353681500                       # number of ReadExReq miss cycles
system.l3cache.ReadExReq_miss_latency::total   5353681500                       # number of ReadExReq miss cycles
system.l3cache.ReadSharedReq_miss_latency::.cpu.inst     43540500                       # number of ReadSharedReq miss cycles
system.l3cache.ReadSharedReq_miss_latency::.cpu.data     12840500                       # number of ReadSharedReq miss cycles
system.l3cache.ReadSharedReq_miss_latency::total     56381000                       # number of ReadSharedReq miss cycles
system.l3cache.demand_miss_latency::.cpu.inst     43540500                       # number of demand (read+write) miss cycles
system.l3cache.demand_miss_latency::.cpu.data   5366522000                       # number of demand (read+write) miss cycles
system.l3cache.demand_miss_latency::total   5410062500                       # number of demand (read+write) miss cycles
system.l3cache.overall_miss_latency::.cpu.inst     43540500                       # number of overall miss cycles
system.l3cache.overall_miss_latency::.cpu.data   5366522000                       # number of overall miss cycles
system.l3cache.overall_miss_latency::total   5410062500                       # number of overall miss cycles
system.l3cache.WritebackDirty_accesses::.writebacks        71339                       # number of WritebackDirty accesses(hits+misses)
system.l3cache.WritebackDirty_accesses::total        71339                       # number of WritebackDirty accesses(hits+misses)
system.l3cache.ReadExReq_accesses::.cpu.data        75130                       # number of ReadExReq accesses(hits+misses)
system.l3cache.ReadExReq_accesses::total        75130                       # number of ReadExReq accesses(hits+misses)
system.l3cache.ReadSharedReq_accesses::.cpu.inst          573                       # number of ReadSharedReq accesses(hits+misses)
system.l3cache.ReadSharedReq_accesses::.cpu.data          162                       # number of ReadSharedReq accesses(hits+misses)
system.l3cache.ReadSharedReq_accesses::total          735                       # number of ReadSharedReq accesses(hits+misses)
system.l3cache.demand_accesses::.cpu.inst          573                       # number of demand (read+write) accesses
system.l3cache.demand_accesses::.cpu.data        75292                       # number of demand (read+write) accesses
system.l3cache.demand_accesses::total           75865                       # number of demand (read+write) accesses
system.l3cache.overall_accesses::.cpu.inst          573                       # number of overall (read+write) accesses
system.l3cache.overall_accesses::.cpu.data        75292                       # number of overall (read+write) accesses
system.l3cache.overall_accesses::total          75865                       # number of overall (read+write) accesses
system.l3cache.ReadExReq_miss_rate::.cpu.data            1                       # miss rate for ReadExReq accesses
system.l3cache.ReadExReq_miss_rate::total            1                       # miss rate for ReadExReq accesses
system.l3cache.ReadSharedReq_miss_rate::.cpu.inst            1                       # miss rate for ReadSharedReq accesses
system.l3cache.ReadSharedReq_miss_rate::.cpu.data     0.981481                       # miss rate for ReadSharedReq accesses
system.l3cache.ReadSharedReq_miss_rate::total     0.995918                       # miss rate for ReadSharedReq accesses
system.l3cache.demand_miss_rate::.cpu.inst            1                       # miss rate for demand accesses
system.l3cache.demand_miss_rate::.cpu.data     0.999960                       # miss rate for demand accesses
system.l3cache.demand_miss_rate::total       0.999960                       # miss rate for demand accesses
system.l3cache.overall_miss_rate::.cpu.inst            1                       # miss rate for overall accesses
system.l3cache.overall_miss_rate::.cpu.data     0.999960                       # miss rate for overall accesses
system.l3cache.overall_miss_rate::total      0.999960                       # miss rate for overall accesses
system.l3cache.ReadExReq_avg_miss_latency::.cpu.data 71258.904565                       # average ReadExReq miss latency
system.l3cache.ReadExReq_avg_miss_latency::total 71258.904565                       # average ReadExReq miss latency
system.l3cache.ReadSharedReq_avg_miss_latency::.cpu.inst 75986.910995                       # average ReadSharedReq miss latency
system.l3cache.ReadSharedReq_avg_miss_latency::.cpu.data 80757.861635                       # average ReadSharedReq miss latency
system.l3cache.ReadSharedReq_avg_miss_latency::total 77023.224044                       # average ReadSharedReq miss latency
system.l3cache.demand_avg_miss_latency::.cpu.inst 75986.910995                       # average overall miss latency
system.l3cache.demand_avg_miss_latency::.cpu.data 71278.965055                       # average overall miss latency
system.l3cache.demand_avg_miss_latency::total 71314.525059                       # average overall miss latency
system.l3cache.overall_avg_miss_latency::.cpu.inst 75986.910995                       # average overall miss latency
system.l3cache.overall_avg_miss_latency::.cpu.data 71278.965055                       # average overall miss latency
system.l3cache.overall_avg_miss_latency::total 71314.525059                       # average overall miss latency
system.l3cache.blocked_cycles::no_mshrs             0                       # number of cycles access was blocked
system.l3cache.blocked_cycles::no_targets            0                       # number of cycles access was blocked
system.l3cache.blocked::no_mshrs                    0                       # number of cycles access was blocked
system.l3cache.blocked::no_targets                  0                       # number of cycles access was blocked
system.l3cache.avg_blocked_cycles::no_mshrs          nan                       # average number of cycles each access was blocked
system.l3cache.avg_blocked_cycles::no_targets          nan                       # average number of cycles each access was blocked
system.l3cache.writebacks::.writebacks          42664                       # number of writebacks
system.l3cache.writebacks::total                42664                       # number of writebacks
system.l3cache.ReadExReq_mshr_misses::.cpu.data        75130                       # number of ReadExReq MSHR misses
system.l3cache.ReadExReq_mshr_misses::total        75130                       # number of ReadExReq MSHR misses
system.l3cache.ReadSharedReq_mshr_misses::.cpu.inst          573                       # number of ReadSharedReq MSHR misses
system.l3cache.ReadSharedReq_mshr_misses::.cpu.data          159                       # number of ReadSharedReq MSHR misses
system.l3cache.ReadSharedReq_mshr_misses::total          732                       # number of ReadSharedReq MSHR misses
system.l3cache.demand_mshr_misses::.cpu.inst          573                       # number of demand (read+write) MSHR misses
system.l3cache.demand_mshr_misses::.cpu.data        75289                       # number of demand (read+write) MSHR misses
system.l3cache.demand_mshr_misses::total        75862                       # number of demand (read+write) MSHR misses
system.l3cache.overall_mshr_misses::.cpu.inst          573                       # number of overall MSHR misses
system.l3cache.overall_mshr_misses::.cpu.data        75289                       # number of overall MSHR misses
system.l3cache.overall_mshr_misses::total        75862                       # number of overall MSHR misses
system.l3cache.ReadExReq_mshr_miss_latency::.cpu.data   5203421500                       # number of ReadExReq MSHR miss cycles
system.l3cache.ReadExReq_mshr_miss_latency::total   5203421500                       # number of ReadExReq MSHR miss cycles
system.l3cache.ReadSharedReq_mshr_miss_latency::.cpu.inst     42394500                       # number of ReadSharedReq MSHR miss cycles
system.l3cache.ReadSharedReq_mshr_miss_latency::.cpu.data     12522500                       # number of ReadSharedReq MSHR miss cycles
system.l3cache.ReadSharedReq_mshr_miss_latency::total     54917000                       # number of ReadSharedReq MSHR miss cycles
system.l3cache.demand_mshr_miss_latency::.cpu.inst     42394500                       # number of demand (read+write) MSHR miss cycles
system.l3cache.demand_mshr_miss_latency::.cpu.data   5215944000                       # number of demand (read+write) MSHR miss cycles
system.l3cache.demand_mshr_miss_latency::total   5258338500                       # number of demand (read+write) MSHR miss cycles
system.l3cache.overall_mshr_miss_latency::.cpu.inst     42394500                       # number of overall MSHR miss cycles
system.l3cache.overall_mshr_miss_latency::.cpu.data   5215944000                       # number of overall MSHR miss cycles
system.l3cache.overall_mshr_miss_latency::total   5258338500                       # number of overall MSHR miss cycles
system.l3cache.ReadExReq_mshr_miss_rate::.cpu.data            1                       # mshr miss rate for ReadExReq accesses
system.l3cache.ReadExReq_mshr_miss_rate::total            1                       # mshr miss rate for ReadExReq accesses
system.l3cache.ReadSharedReq_mshr_miss_rate::.cpu.inst            1                       # mshr miss rate for ReadSharedReq accesses
system.l3cache.ReadSharedReq_mshr_miss_rate::.cpu.data     0.981481                       # mshr miss rate for ReadSharedReq accesses
system.l3cache.ReadSharedReq_mshr_miss_rate::total     0.995918                       # mshr miss rate for ReadSharedReq accesses
system.l3cache.demand_mshr_miss_rate::.cpu.inst            1                       # mshr miss rate for demand accesses
system.l3cache.demand_mshr_miss_rate::.cpu.data     0.999960                       # mshr miss rate for demand accesses
system.l3cache.demand_mshr_miss_rate::total     0.999960                       # mshr miss rate for demand accesses
system.l3cache.overall_mshr_miss_rate::.cpu.inst            1                       # mshr miss rate for overall accesses
system.l3cache.overall_mshr_miss_rate::.cpu.data     0.999960                       # mshr miss rate for overall accesses
system.l3cache.overall_mshr_miss_rate::total     0.999960                       # mshr miss rate for overall accesses
system.l3cache.ReadExReq_avg_mshr_miss_latency::.cpu.data 69258.904565                       # average ReadExReq mshr miss latency
system.l3cache.ReadExReq_avg_mshr_miss_latency::total 69258.904565                       # average ReadExReq mshr miss latency
system.l3cache.ReadSharedReq_avg_mshr_miss_latency::.cpu.inst 73986.910995                       # average ReadSharedReq mshr miss latency
system.l3cache.ReadSharedReq_avg_mshr_miss_latency::.cpu.data 78757.861635                       # average ReadSharedReq mshr miss latency
system.l3cache.ReadSharedReq_avg_mshr_miss_latency::total 75023.224044                       # average ReadSharedReq mshr miss latency
system.l3cache.demand_avg_mshr_miss_latency::.cpu.inst 73986.910995                       # average overall mshr miss latency
system.l3cache.demand_avg_mshr_miss_latency::.cpu.data 69278.965055                       # average overall mshr miss latency
system.l3cache.demand_avg_mshr_miss_latency::total 69314.525059                       # average overall mshr miss latency
system.l3cache.overall_avg_mshr_miss_latency::.cpu.inst 73986.910995                       # average overall mshr miss latency
system.l3cache.overall_avg_mshr_miss_latency::.cpu.data 69278.965055                       # average overall mshr miss latency
system.l3cache.overall_avg_mshr_miss_latency::total 69314.525059                       # average overall mshr miss latency
system.l3cache.replacements                     43094                       # number of replacements
system.membus.snoop_filter.tot_requests        118723                       # Total number of requests made to the snoop filter.
system.membus.snoop_filter.hit_single_requests        42877                       # Number of requests hitting in the snoop filter with a single holder of the requested data.
system.membus.snoop_filter.hit_multi_requests            0                       # Number of requests hitting in the snoop filter with multiple (>1) holders of the requested data.
system.membus.snoop_filter.tot_snoops               0                       # Total number of snoops made to the snoop filter.
system.membus.snoop_filter.hit_single_snoops            0                       # Number of snoops hitting in the snoop filter with a single holder of the requested data.
system.membus.snoop_filter.hit_multi_snoops            0                       # Number of snoops hitting in the snoop filter with multiple (>1) holders of the requested data.
system.membus.pwrStateResidencyTicks::UNDEFINED  11208755000                       # Cumulative time (in ticks) in various power states
system.membus.trans_dist::ReadResp                732                       # Transaction distribution
system.membus.trans_dist::WritebackDirty        42664                       # Transaction distribution
system.membus.trans_dist::CleanEvict              197                       # Transaction distribution
system.membus.trans_dist::ReadExReq             75130                       # Transaction distribution
system.membus.trans_dist::ReadExResp            75130                       # Transaction distribution
system.membus.trans_dist::ReadSharedReq           732                       # Transaction distribution
system.membus.pkt_count_system.l3cache.mem_side::system.mem_ctrl.port       194585                       # Packet count per connected master and slave (bytes)
system.membus.pkt_count_system.l3cache.mem_side::total       194585                       # Packet count per connected master and slave (bytes)
system.membus.pkt_count::total                 194585                       # Packet count per connected master and slave (bytes)
system.membus.pkt_size_system.l3cache.mem_side::system.mem_ctrl.port      7585664                       # Cumulative packet size per connected master and slave (bytes)
system.membus.pkt_size_system.l3cache.mem_side::total      7585664                       # Cumulative packet size per connected master and slave (bytes)
system.membus.pkt_size::total                 7585664                       # Cumulative packet size per connected master and slave (bytes)
system.membus.snoops                                0                       # Total snoops (count)
system.membus.snoopTraffic                          0                       # Total snoop traffic (bytes)
system.membus.snoop_fanout::samples             75862                       # Request fanout histogram
system.membus.snoop_fanout::mean                    0                       # Request fanout histogram
system.membus.snoop_fanout::stdev                   0                       # Request fanout histogram
system.membus.snoop_fanout::underflows              0      0.00%      0.00% # Request fanout histogram
system.membus.snoop_fanout::0                   75862    100.00%    100.00% # Request fanout histogram
system.membus.snoop_fanout::1                       0      0.00%    100.00% # Request fanout histogram
system.membus.snoop_fanout::overflows               0      0.00%    100.00% # Request fanout histogram
system.membus.snoop_fanout::min_value               0                       # Request fanout histogram
system.membus.snoop_fanout::max_value               0                       # Request fanout histogram
system.membus.snoop_fanout::total               75862                       # Request fanout histogram
system.membus.reqLayer0.occupancy           144689500                       # Layer occupancy (ticks)
system.membus.reqLayer0.utilization               1.3                       # Layer utilization (%)
system.membus.respLayer0.occupancy          207456250                       # Layer occupancy (ticks)
system.membus.respLayer0.utilization              1.9                       # Layer utilization (%)

---------- End Simulation Statistics   ----------